* NGSPICE file created from CMOS_sbox_flat.ext - technology: sky130A

.subckt CMOS_sbox_flat x0 x0_bar x1 x1_bar x2 x2_bar x3 x3_bar GND s0 s1 s2 s3 VDD
X0 a_275_n6086# CMOS_s2_0/CMOS_4in_AND_0/OUT.t2 a_575_n6996# VDD.t135 sky130_fd_pr__pfet_01v8 ad=1.8e+12p pd=7.2e+06u as=1.8e+12p ps=7.2e+06u w=3e+06u l=150000u
X1 a_n787_n2858# x3.t0 GND.t64 GND.t63 sky130_fd_pr__nfet_01v8 ad=9e+11p pd=4.2e+06u as=0p ps=0u w=1.5e+06u l=150000u
X2 a_n432_n5418# x0_bar.t0 CMOS_s2_0/CMOS_XOR_0/XOR GND.t73 sky130_fd_pr__nfet_01v8 ad=9e+11p pd=4.2e+06u as=9e+11p ps=4.2e+06u w=1.5e+06u l=150000u
X3 CMOS_s2_0/CMOS_3in_OR_0/B a_425_n4808# VDD.t109 VDD.t108 sky130_fd_pr__pfet_01v8 ad=1.8e+12p pd=7.2e+06u as=0p ps=0u w=3e+06u l=150000u
X4 s1.t1 a_275_n2858# VDD.t59 VDD.t58 sky130_fd_pr__pfet_01v8 ad=0p pd=0u as=0p ps=0u w=3e+06u l=150000u
X5 a_275_n9314# CMOS_s3_0/CMOS_3in_OR_0/B GND.t117 GND.t116 sky130_fd_pr__nfet_01v8 ad=1.8e+12p pd=8.4e+06u as=0p ps=0u w=1.5e+06u l=150000u
X6 CMOS_s0_0/CMOS_AND_0/AND a_425_1648# GND.t90 GND.t87 sky130_fd_pr__nfet_01v8 ad=9e+11p pd=4.2e+06u as=0p ps=0u w=1.5e+06u l=150000u
X7 a_n2290_370# x3.t1 GND.t62 GND.t61 sky130_fd_pr__nfet_01v8 ad=9e+11p pd=4.2e+06u as=0p ps=0u w=1.5e+06u l=150000u
X8 CMOS_s2_0/CMOS_XOR_0/XOR x0.t0 a_n732_n5418# GND.t10 sky130_fd_pr__nfet_01v8 ad=0p pd=0u as=9e+11p ps=4.2e+06u w=1.5e+06u l=150000u
X9 a_n2345_n6996# x3_bar.t0 a_n2045_n6086# GND.t69 sky130_fd_pr__nfet_01v8 ad=9e+11p pd=4.2e+06u as=9e+11p ps=4.2e+06u w=1.5e+06u l=150000u
X10 a_n2495_n10224# x2_bar.t0 a_n2195_n9314# GND.t127 sky130_fd_pr__nfet_01v8 ad=9e+11p pd=4.2e+06u as=9e+11p ps=4.2e+06u w=1.5e+06u l=150000u
X11 CMOS_s1_0/CMOS_3in_OR_0/A a_n787_n3768# GND.t93 GND.t92 sky130_fd_pr__nfet_01v8 ad=9e+11p pd=4.2e+06u as=0p ps=0u w=1.5e+06u l=150000u
X12 a_n2345_n6996# x2.t0 VDD.t115 VDD.t114 sky130_fd_pr__pfet_01v8 ad=3.6e+12p pd=1.44e+07u as=0p ps=0u w=3e+06u l=150000u
X13 CMOS_s2_0/CMOS_3in_OR_0/B a_425_n4808# GND.t105 GND.t104 sky130_fd_pr__nfet_01v8 ad=9e+11p pd=4.2e+06u as=0p ps=0u w=1.5e+06u l=150000u
X14 a_425_n4808# x2_bar.t1 VDD.t15 VDD.t14 sky130_fd_pr__pfet_01v8 ad=1.8e+12p pd=7.2e+06u as=0p ps=0u w=3e+06u l=150000u
X15 a_n2195_n9314# x0.t1 a_n2345_n9314# GND.t48 sky130_fd_pr__nfet_01v8 ad=0p pd=0u as=9e+11p ps=4.2e+06u w=1.5e+06u l=150000u
X16 VDD.t65 CMOS_s2_0/CMOS_XOR_0/XOR a_425_n4808# VDD.t64 sky130_fd_pr__pfet_01v8 ad=0p pd=0u as=0p ps=0u w=3e+06u l=150000u
X17 a_n787_n10224# CMOS_s3_0/CMOS_AND_1/A a_n787_n9314# GND.t81 sky130_fd_pr__nfet_01v8 ad=9e+11p pd=4.2e+06u as=9e+11p ps=4.2e+06u w=1.5e+06u l=150000u
X18 a_n1990_n4808# x3_bar.t1 a_n2140_n5418# VDD.t45 sky130_fd_pr__pfet_01v8 ad=1.8e+12p pd=7.2e+06u as=1.8e+12p ps=7.2e+06u w=3e+06u l=150000u
X19 CMOS_s0_0/CMOS_XOR_0/XOR x0.t2 a_n2290_1648# VDD.t39 sky130_fd_pr__pfet_01v8 ad=1.8e+12p pd=7.2e+06u as=1.8e+12p ps=7.2e+06u w=3e+06u l=150000u
X20 CMOS_s1_0/CMOS_3in_OR_0/C.t0 a_n2495_n3768# GND.t51 GND.t50 sky130_fd_pr__nfet_01v8 ad=0p pd=0u as=0p ps=0u w=1.5e+06u l=150000u
X21 a_n2290_1648# x3_bar.t2 VDD.t143 VDD.t142 sky130_fd_pr__pfet_01v8 ad=0p pd=0u as=0p ps=0u w=3e+06u l=150000u
X22 a_n787_1038# x2_bar.t2 a_n787_1648# VDD.t18 sky130_fd_pr__pfet_01v8 ad=1.8e+12p pd=7.2e+06u as=1.8e+12p ps=7.2e+06u w=3e+06u l=150000u
X23 a_n787_n9314# x3_bar.t3 GND.t136 GND.t135 sky130_fd_pr__nfet_01v8 ad=0p pd=0u as=0p ps=0u w=1.5e+06u l=150000u
X24 a_n787_1648# x1.t0 VDD.t101 VDD.t100 sky130_fd_pr__pfet_01v8 ad=0p pd=0u as=0p ps=0u w=3e+06u l=150000u
X25 a_425_n5418# x2_bar.t3 GND.t9 GND.t2 sky130_fd_pr__nfet_01v8 ad=9e+11p pd=4.2e+06u as=0p ps=0u w=1.5e+06u l=150000u
X26 a_275_n9314# CMOS_s3_0/CMOS_3in_OR_0/C.t2 a_575_n10224# VDD.t0 sky130_fd_pr__pfet_01v8 ad=1.8e+12p pd=7.2e+06u as=1.8e+12p ps=7.2e+06u w=3e+06u l=150000u
X27 CMOS_s2_0/CMOS_4in_AND_0/OUT.t0 a_n2345_n6996# GND.t7 GND.t6 sky130_fd_pr__nfet_01v8 ad=0p pd=0u as=0p ps=0u w=1.5e+06u l=150000u
X28 CMOS_s0_0/CMOS_AND_0/B a_n787_1038# GND.t49 GND.t35 sky130_fd_pr__nfet_01v8 ad=9e+11p pd=4.2e+06u as=0p ps=0u w=1.5e+06u l=150000u
X29 a_425_n540# CMOS_s0_0/CMOS_AND_1/A a_425_370# GND.t11 sky130_fd_pr__nfet_01v8 ad=9e+11p pd=4.2e+06u as=9e+11p ps=4.2e+06u w=1.5e+06u l=150000u
X30 a_n732_n1580# x3_bar.t4 VDD.t32 VDD.t31 sky130_fd_pr__pfet_01v8 ad=1.8e+12p pd=7.2e+06u as=0p ps=0u w=3e+06u l=150000u
X31 a_425_n4808# CMOS_s2_0/CMOS_XOR_0/XOR a_425_n5418# GND.t12 sky130_fd_pr__nfet_01v8 ad=9e+11p pd=4.2e+06u as=0p ps=0u w=1.5e+06u l=150000u
X32 VDD.t44 x3.t2 a_n2495_n10224# VDD.t43 sky130_fd_pr__pfet_01v8 ad=0p pd=0u as=3.6e+12p ps=1.44e+07u w=3e+06u l=150000u
X33 VDD.t38 x0.t3 a_n432_n4808# VDD.t37 sky130_fd_pr__pfet_01v8 ad=0p pd=0u as=1.8e+12p ps=7.2e+06u w=3e+06u l=150000u
X34 a_n1990_n5418# x2_bar.t4 a_n2140_n5418# GND.t99 sky130_fd_pr__nfet_01v8 ad=9e+11p pd=4.2e+06u as=9e+11p ps=4.2e+06u w=1.5e+06u l=150000u
X35 VDD.t96 x2.t1 a_n1990_n4808# VDD.t95 sky130_fd_pr__pfet_01v8 ad=0p pd=0u as=0p ps=0u w=3e+06u l=150000u
X36 s1.t0 a_275_n2858# GND.t75 GND.t74 sky130_fd_pr__nfet_01v8 ad=0p pd=0u as=0p ps=0u w=1.5e+06u l=150000u
X37 a_n1990_1038# x3_bar.t5 CMOS_s0_0/CMOS_XOR_0/XOR GND.t40 sky130_fd_pr__nfet_01v8 ad=9e+11p pd=4.2e+06u as=9e+11p ps=4.2e+06u w=1.5e+06u l=150000u
X38 a_n2140_n540# x3.t3 a_n2290_n540# VDD.t30 sky130_fd_pr__pfet_01v8 ad=1.8e+12p pd=7.2e+06u as=1.8e+12p ps=7.2e+06u w=3e+06u l=150000u
X39 CMOS_s0_0/CMOS_AND_1/AND a_425_n540# GND.t88 GND.t87 sky130_fd_pr__nfet_01v8 ad=9e+11p pd=4.2e+06u as=0p ps=0u w=1.5e+06u l=150000u
X40 a_425_n10224# CMOS_s3_0/CMOS_3in_OR_0/A VDD.t67 VDD.t66 sky130_fd_pr__pfet_01v8 ad=1.8e+12p pd=7.2e+06u as=0p ps=0u w=3e+06u l=150000u
X41 CMOS_s3_0/CMOS_3in_OR_0/A a_n787_n10224# GND.t80 GND.t79 sky130_fd_pr__nfet_01v8 ad=9e+11p pd=4.2e+06u as=0p ps=0u w=1.5e+06u l=150000u
X42 a_n2290_n540# x0_bar.t1 VDD.t23 VDD.t22 sky130_fd_pr__pfet_01v8 ad=0p pd=0u as=0p ps=0u w=3e+06u l=150000u
X43 s0.t1 a_1637_1038# VDD.t4 VDD.t3 sky130_fd_pr__pfet_01v8 ad=0p pd=0u as=0p ps=0u w=3e+06u l=150000u
X44 VDD.t94 x2.t2 a_n787_n540# VDD.t93 sky130_fd_pr__pfet_01v8 ad=0p pd=0u as=1.8e+12p ps=7.2e+06u w=3e+06u l=150000u
X45 a_425_n6996# CMOS_s2_0/CMOS_3in_OR_0/A VDD.t2 VDD.t1 sky130_fd_pr__pfet_01v8 ad=1.8e+12p pd=7.2e+06u as=0p ps=0u w=3e+06u l=150000u
X46 a_n787_n540# x1_bar.t0 VDD.t103 VDD.t102 sky130_fd_pr__pfet_01v8 ad=0p pd=0u as=0p ps=0u w=3e+06u l=150000u
X47 GND.t122 CMOS_s2_0/CMOS_4in_AND_0/OUT.t3 a_275_n6086# GND.t121 sky130_fd_pr__nfet_01v8 ad=0p pd=0u as=1.8e+12p ps=8.4e+06u w=1.5e+06u l=150000u
X48 a_n732_n2190# x1.t1 GND.t24 GND.t23 sky130_fd_pr__nfet_01v8 ad=9e+11p pd=4.2e+06u as=0p ps=0u w=1.5e+06u l=150000u
X49 VDD.t57 x2_bar.t5 a_n2495_n10224# VDD.t56 sky130_fd_pr__pfet_01v8 ad=0p pd=0u as=0p ps=0u w=3e+06u l=150000u
X50 a_575_n6996# CMOS_s2_0/CMOS_3in_OR_0/B a_425_n6996# VDD.t9 sky130_fd_pr__pfet_01v8 ad=0p pd=0u as=0p ps=0u w=3e+06u l=150000u
X51 a_n787_370# x1_bar.t1 GND.t67 GND.t65 sky130_fd_pr__nfet_01v8 ad=9e+11p pd=4.2e+06u as=0p ps=0u w=1.5e+06u l=150000u
X52 GND.t119 x1_bar.t2 a_n432_n5418# GND.t118 sky130_fd_pr__nfet_01v8 ad=0p pd=0u as=0p ps=0u w=1.5e+06u l=150000u
X53 CMOS_s3_0/CMOS_3in_OR_0/C.t0 a_n2495_n10224# GND.t83 GND.t82 sky130_fd_pr__nfet_01v8 ad=0p pd=0u as=0p ps=0u w=1.5e+06u l=150000u
X54 GND.t126 x3_bar.t6 a_n1990_n5418# GND.t125 sky130_fd_pr__nfet_01v8 ad=0p pd=0u as=0p ps=0u w=1.5e+06u l=150000u
X55 a_275_n2858# CMOS_s1_0/CMOS_3in_OR_0/C.t2 a_575_n3768# VDD.t129 sky130_fd_pr__pfet_01v8 ad=1.8e+12p pd=7.2e+06u as=1.8e+12p ps=7.2e+06u w=3e+06u l=150000u
X56 a_425_1648# CMOS_s0_0/CMOS_AND_0/B VDD.t42 VDD.t41 sky130_fd_pr__pfet_01v8 ad=1.8e+12p pd=7.2e+06u as=0p ps=0u w=3e+06u l=150000u
X57 a_1637_1648# CMOS_s0_0/CMOS_AND_0/AND VDD.t75 VDD.t74 sky130_fd_pr__pfet_01v8 ad=1.8e+12p pd=7.2e+06u as=0p ps=0u w=3e+06u l=150000u
X58 VDD.t107 CMOS_s0_0/CMOS_XOR_0/XOR a_425_1648# VDD.t106 sky130_fd_pr__pfet_01v8 ad=0p pd=0u as=0p ps=0u w=3e+06u l=150000u
X59 a_n2140_n540# x0.t4 a_n2290_370# GND.t60 sky130_fd_pr__nfet_01v8 ad=9e+11p pd=4.2e+06u as=0p ps=0u w=1.5e+06u l=150000u
X60 a_n2345_n6996# x1.t2 VDD.t92 VDD.t91 sky130_fd_pr__pfet_01v8 ad=0p pd=0u as=0p ps=0u w=3e+06u l=150000u
X61 CMOS_s3_0/CMOS_3in_OR_0/A a_n787_n10224# VDD.t69 VDD.t68 sky130_fd_pr__pfet_01v8 ad=1.8e+12p pd=7.2e+06u as=0p ps=0u w=3e+06u l=150000u
X62 VDD.t71 CMOS_s3_0/CMOS_AND_1/A a_n787_n10224# VDD.t70 sky130_fd_pr__pfet_01v8 ad=0p pd=0u as=1.8e+12p ps=7.2e+06u w=3e+06u l=150000u
X63 a_n732_n8036# x3_bar.t7 VDD.t139 VDD.t138 sky130_fd_pr__pfet_01v8 ad=1.8e+12p pd=7.2e+06u as=0p ps=0u w=3e+06u l=150000u
X64 a_n2345_n6086# x2.t3 GND.t96 GND.t95 sky130_fd_pr__nfet_01v8 ad=9e+11p pd=4.2e+06u as=0p ps=0u w=1.5e+06u l=150000u
X65 s3.t1 a_275_n9314# VDD.t111 VDD.t110 sky130_fd_pr__pfet_01v8 ad=0p pd=0u as=0p ps=0u w=3e+06u l=150000u
X66 a_n2140_n2190# x0.t5 a_n2290_n1580# VDD.t30 sky130_fd_pr__pfet_01v8 ad=1.8e+12p pd=7.2e+06u as=1.8e+12p ps=7.2e+06u w=3e+06u l=150000u
X67 s3.t0 a_275_n9314# GND.t107 GND.t106 sky130_fd_pr__nfet_01v8 ad=0p pd=0u as=0p ps=0u w=1.5e+06u l=150000u
X68 VDD.t28 x0.t6 a_n2345_n6996# VDD.t27 sky130_fd_pr__pfet_01v8 ad=0p pd=0u as=0p ps=0u w=3e+06u l=150000u
X69 a_n732_n8646# x2.t4 GND.t98 GND.t97 sky130_fd_pr__nfet_01v8 ad=9e+11p pd=4.2e+06u as=0p ps=0u w=1.5e+06u l=150000u
X70 VDD.t132 x0_bar.t2 a_n2495_n3768# VDD.t131 sky130_fd_pr__pfet_01v8 ad=0p pd=0u as=3.6e+12p ps=1.44e+07u w=3e+06u l=150000u
X71 VDD.t124 CMOS_s2_0/CMOS_AND_1/A a_n787_n6996# VDD.t123 sky130_fd_pr__pfet_01v8 ad=0p pd=0u as=1.8e+12p ps=7.2e+06u w=3e+06u l=150000u
X72 a_n2290_n1580# x2_bar.t6 VDD.t90 VDD.t22 sky130_fd_pr__pfet_01v8 ad=0p pd=0u as=0p ps=0u w=3e+06u l=150000u
X73 a_425_n540# CMOS_s0_0/CMOS_AND_1/B VDD.t118 VDD.t104 sky130_fd_pr__pfet_01v8 ad=1.8e+12p pd=7.2e+06u as=0p ps=0u w=3e+06u l=150000u
X74 a_n787_n6996# x1_bar.t3 VDD.t128 VDD.t127 sky130_fd_pr__pfet_01v8 ad=0p pd=0u as=0p ps=0u w=3e+06u l=150000u
X75 VDD.t8 CMOS_s0_0/CMOS_AND_1/A a_425_n540# VDD.t7 sky130_fd_pr__pfet_01v8 ad=0p pd=0u as=0p ps=0u w=3e+06u l=150000u
X76 CMOS_s1_0/CMOS_AND_1/A a_n2140_n2190# VDD.t20 VDD.t19 sky130_fd_pr__pfet_01v8 ad=1.8e+12p pd=7.2e+06u as=0p ps=0u w=3e+06u l=150000u
X77 a_n432_n1580# x1_bar.t4 CMOS_s1_0/CMOS_XOR_0/XOR VDD.t121 sky130_fd_pr__pfet_01v8 ad=1.8e+12p pd=7.2e+06u as=1.8e+12p ps=7.2e+06u w=3e+06u l=150000u
X78 a_n2140_n2190# x2.t5 a_n2290_n2190# GND.t111 sky130_fd_pr__nfet_01v8 ad=9e+11p pd=4.2e+06u as=9e+11p ps=4.2e+06u w=1.5e+06u l=150000u
X79 CMOS_s0_0/CMOS_XOR_0/XOR x3.t4 a_n2290_1038# GND.t60 sky130_fd_pr__nfet_01v8 ad=0p pd=0u as=9e+11p ps=4.2e+06u w=1.5e+06u l=150000u
X80 GND.t19 x3_bar.t8 a_n1990_370# GND.t18 sky130_fd_pr__nfet_01v8 ad=0p pd=0u as=9e+11p ps=4.2e+06u w=1.5e+06u l=150000u
X81 a_n2290_1038# x0.t7 GND.t139 GND.t61 sky130_fd_pr__nfet_01v8 ad=0p pd=0u as=0p ps=0u w=1.5e+06u l=150000u
X82 CMOS_s1_0/CMOS_XOR_0/XOR x1.t3 a_n732_n1580# VDD.t99 sky130_fd_pr__pfet_01v8 ad=0p pd=0u as=0p ps=0u w=3e+06u l=150000u
X83 GND.t72 x2_bar.t7 a_n787_1038# GND.t71 sky130_fd_pr__nfet_01v8 ad=0p pd=0u as=9e+11p ps=4.2e+06u w=1.5e+06u l=150000u
X84 CMOS_s0_0/CMOS_AND_1/B a_n2140_n540# GND.t47 GND.t46 sky130_fd_pr__nfet_01v8 ad=9e+11p pd=4.2e+06u as=0p ps=0u w=1.5e+06u l=150000u
X85 a_425_370# CMOS_s0_0/CMOS_AND_1/B GND.t108 GND.t44 sky130_fd_pr__nfet_01v8 ad=0p pd=0u as=0p ps=0u w=1.5e+06u l=150000u
X86 a_n787_1038# x1.t4 GND.t66 GND.t65 sky130_fd_pr__nfet_01v8 ad=0p pd=0u as=0p ps=0u w=1.5e+06u l=150000u
X87 a_n2290_n2190# x0.t8 GND.t30 GND.t29 sky130_fd_pr__nfet_01v8 ad=0p pd=0u as=0p ps=0u w=1.5e+06u l=150000u
X88 VDD.t17 x3.t5 a_n1990_1648# VDD.t16 sky130_fd_pr__pfet_01v8 ad=0p pd=0u as=1.8e+12p ps=7.2e+06u w=3e+06u l=150000u
X89 CMOS_s1_0/CMOS_AND_1/A a_n2140_n2190# GND.t26 GND.t25 sky130_fd_pr__nfet_01v8 ad=9e+11p pd=4.2e+06u as=0p ps=0u w=1.5e+06u l=150000u
X90 CMOS_s2_0/CMOS_3in_OR_0/A a_n787_n6996# VDD.t25 VDD.t24 sky130_fd_pr__pfet_01v8 ad=1.8e+12p pd=7.2e+06u as=0p ps=0u w=3e+06u l=150000u
X91 GND.t115 CMOS_s1_0/CMOS_3in_OR_0/C.t3 a_275_n2858# GND.t114 sky130_fd_pr__nfet_01v8 ad=0p pd=0u as=1.8e+12p ps=8.4e+06u w=1.5e+06u l=150000u
X92 GND.t3 CMOS_s2_0/CMOS_3in_OR_0/A a_275_n6086# GND.t2 sky130_fd_pr__nfet_01v8 ad=0p pd=0u as=0p ps=0u w=1.5e+06u l=150000u
X93 CMOS_s1_0/CMOS_3in_OR_0/B a_425_n1580# VDD.t11 VDD.t10 sky130_fd_pr__pfet_01v8 ad=1.8e+12p pd=7.2e+06u as=0p ps=0u w=3e+06u l=150000u
X94 a_n432_n2190# x3_bar.t9 CMOS_s1_0/CMOS_XOR_0/XOR GND.t20 sky130_fd_pr__nfet_01v8 ad=9e+11p pd=4.2e+06u as=9e+11p ps=4.2e+06u w=1.5e+06u l=150000u
X95 a_n2140_n8646# x1.t5 a_n2290_n8036# VDD.t35 sky130_fd_pr__pfet_01v8 ad=1.8e+12p pd=7.2e+06u as=1.8e+12p ps=7.2e+06u w=3e+06u l=150000u
X96 CMOS_s0_0/CMOS_AND_1/A a_n787_n540# GND.t36 GND.t35 sky130_fd_pr__nfet_01v8 ad=9e+11p pd=4.2e+06u as=0p ps=0u w=1.5e+06u l=150000u
X97 a_275_n6086# CMOS_s2_0/CMOS_3in_OR_0/B GND.t13 GND.t12 sky130_fd_pr__nfet_01v8 ad=0p pd=0u as=0p ps=0u w=1.5e+06u l=150000u
X98 CMOS_s1_0/CMOS_XOR_0/XOR x3.t6 a_n732_n2190# GND.t59 sky130_fd_pr__nfet_01v8 ad=0p pd=0u as=0p ps=0u w=1.5e+06u l=150000u
X99 a_425_n3768# CMOS_s1_0/CMOS_3in_OR_0/A VDD.t80 VDD.t79 sky130_fd_pr__pfet_01v8 ad=1.8e+12p pd=7.2e+06u as=0p ps=0u w=3e+06u l=150000u
X100 a_n2290_n8036# x0_bar.t3 VDD.t145 VDD.t144 sky130_fd_pr__pfet_01v8 ad=0p pd=0u as=0p ps=0u w=3e+06u l=150000u
X101 a_1637_1038# CMOS_s0_0/CMOS_AND_1/AND a_1637_1648# VDD.t36 sky130_fd_pr__pfet_01v8 ad=1.8e+12p pd=7.2e+06u as=0p ps=0u w=3e+06u l=150000u
X102 a_n2140_n8646# x0.t9 a_n2290_n8646# GND.t103 sky130_fd_pr__nfet_01v8 ad=9e+11p pd=4.2e+06u as=9e+11p ps=4.2e+06u w=1.5e+06u l=150000u
X103 CMOS_s3_0/CMOS_AND_1/A a_n2140_n8646# VDD.t13 VDD.t12 sky130_fd_pr__pfet_01v8 ad=1.8e+12p pd=7.2e+06u as=0p ps=0u w=3e+06u l=150000u
X104 s0.t0 a_1637_1038# GND.t5 GND.t4 sky130_fd_pr__nfet_01v8 ad=0p pd=0u as=0p ps=0u w=1.5e+06u l=150000u
X105 a_n787_n540# x2.t6 a_n787_370# GND.t71 sky130_fd_pr__nfet_01v8 ad=9e+11p pd=4.2e+06u as=0p ps=0u w=1.5e+06u l=150000u
X106 a_575_n3768# CMOS_s1_0/CMOS_3in_OR_0/B a_425_n3768# VDD.t134 sky130_fd_pr__pfet_01v8 ad=0p pd=0u as=0p ps=0u w=3e+06u l=150000u
X107 VDD.t148 x0.t10 a_n1990_n540# VDD.t116 sky130_fd_pr__pfet_01v8 ad=0p pd=0u as=1.8e+12p ps=7.2e+06u w=3e+06u l=150000u
X108 a_n2290_n8646# x1.t6 GND.t129 GND.t128 sky130_fd_pr__nfet_01v8 ad=0p pd=0u as=0p ps=0u w=1.5e+06u l=150000u
X109 a_n2345_n2858# x0_bar.t4 GND.t131 GND.t130 sky130_fd_pr__nfet_01v8 ad=9e+11p pd=4.2e+06u as=0p ps=0u w=1.5e+06u l=150000u
X110 a_n432_n8036# x2_bar.t8 CMOS_s3_0/CMOS_XOR_0/XOR VDD.t89 sky130_fd_pr__pfet_01v8 ad=1.8e+12p pd=7.2e+06u as=1.8e+12p ps=7.2e+06u w=3e+06u l=150000u
X111 a_n2045_n6086# x1.t7 a_n2195_n6086# GND.t102 sky130_fd_pr__nfet_01v8 ad=0p pd=0u as=9e+11p ps=4.2e+06u w=1.5e+06u l=150000u
X112 a_n732_n4808# x0_bar.t5 VDD.t150 VDD.t149 sky130_fd_pr__pfet_01v8 ad=1.8e+12p pd=7.2e+06u as=0p ps=0u w=3e+06u l=150000u
X113 a_425_n1580# x2_bar.t9 VDD.t105 VDD.t104 sky130_fd_pr__pfet_01v8 ad=1.8e+12p pd=7.2e+06u as=0p ps=0u w=3e+06u l=150000u
X114 CMOS_s1_0/CMOS_3in_OR_0/B a_425_n1580# GND.t15 GND.t14 sky130_fd_pr__nfet_01v8 ad=9e+11p pd=4.2e+06u as=0p ps=0u w=1.5e+06u l=150000u
X115 CMOS_s3_0/CMOS_AND_1/A a_n2140_n8646# GND.t17 GND.t16 sky130_fd_pr__nfet_01v8 ad=9e+11p pd=4.2e+06u as=0p ps=0u w=1.5e+06u l=150000u
X116 a_575_n10224# CMOS_s3_0/CMOS_3in_OR_0/B a_425_n10224# VDD.t133 sky130_fd_pr__pfet_01v8 ad=0p pd=0u as=0p ps=0u w=3e+06u l=150000u
X117 a_n432_n8646# x3_bar.t10 CMOS_s3_0/CMOS_XOR_0/XOR GND.t8 sky130_fd_pr__nfet_01v8 ad=9e+11p pd=4.2e+06u as=9e+11p ps=4.2e+06u w=1.5e+06u l=150000u
X118 CMOS_s3_0/CMOS_XOR_0/XOR x2.t7 a_n732_n8036# VDD.t130 sky130_fd_pr__pfet_01v8 ad=0p pd=0u as=0p ps=0u w=3e+06u l=150000u
X119 a_n2195_n6086# x0.t11 a_n2345_n6086# GND.t39 sky130_fd_pr__nfet_01v8 ad=0p pd=0u as=0p ps=0u w=1.5e+06u l=150000u
X120 CMOS_s0_0/CMOS_AND_0/AND a_425_1648# VDD.t82 VDD.t81 sky130_fd_pr__pfet_01v8 ad=1.8e+12p pd=7.2e+06u as=0p ps=0u w=3e+06u l=150000u
X121 VDD.t122 CMOS_s1_0/CMOS_XOR_0/XOR a_425_n1580# VDD.t7 sky130_fd_pr__pfet_01v8 ad=0p pd=0u as=0p ps=0u w=3e+06u l=150000u
X122 VDD.t63 x3_bar.t11 a_n2495_n3768# VDD.t62 sky130_fd_pr__pfet_01v8 ad=0p pd=0u as=0p ps=0u w=3e+06u l=150000u
X123 s2.t1 a_275_n6086# VDD.t137 VDD.t136 sky130_fd_pr__pfet_01v8 ad=0p pd=0u as=0p ps=0u w=3e+06u l=150000u
X124 a_425_1038# CMOS_s0_0/CMOS_AND_0/B GND.t45 GND.t44 sky130_fd_pr__nfet_01v8 ad=9e+11p pd=4.2e+06u as=0p ps=0u w=1.5e+06u l=150000u
X125 a_1637_1038# CMOS_s0_0/CMOS_AND_0/AND GND.t85 GND.t84 sky130_fd_pr__nfet_01v8 ad=9e+11p pd=4.2e+06u as=0p ps=0u w=1.5e+06u l=150000u
X126 a_n2495_n10224# x0.t12 VDD.t141 VDD.t140 sky130_fd_pr__pfet_01v8 ad=0p pd=0u as=0p ps=0u w=3e+06u l=150000u
X127 a_n787_n6996# CMOS_s2_0/CMOS_AND_1/A a_n787_n6086# GND.t113 sky130_fd_pr__nfet_01v8 ad=9e+11p pd=4.2e+06u as=9e+11p ps=4.2e+06u w=1.5e+06u l=150000u
X128 a_425_1648# CMOS_s0_0/CMOS_XOR_0/XOR a_425_1038# GND.t11 sky130_fd_pr__nfet_01v8 ad=9e+11p pd=4.2e+06u as=0p ps=0u w=1.5e+06u l=150000u
X129 a_n1990_n1580# x0_bar.t6 a_n2140_n2190# VDD.t40 sky130_fd_pr__pfet_01v8 ad=1.8e+12p pd=7.2e+06u as=0p ps=0u w=3e+06u l=150000u
X130 GND.t77 CMOS_s3_0/CMOS_3in_OR_0/C.t3 a_275_n9314# GND.t76 sky130_fd_pr__nfet_01v8 ad=0p pd=0u as=0p ps=0u w=1.5e+06u l=150000u
X131 CMOS_s3_0/CMOS_XOR_0/XOR x3.t7 a_n732_n8646# GND.t58 sky130_fd_pr__nfet_01v8 ad=0p pd=0u as=0p ps=0u w=1.5e+06u l=150000u
X132 a_n2495_n3768# x1.t8 VDD.t155 VDD.t154 sky130_fd_pr__pfet_01v8 ad=0p pd=0u as=0p ps=0u w=3e+06u l=150000u
X133 CMOS_s3_0/CMOS_3in_OR_0/B a_425_n8036# VDD.t120 VDD.t119 sky130_fd_pr__pfet_01v8 ad=1.8e+12p pd=7.2e+06u as=0p ps=0u w=3e+06u l=150000u
X134 a_n787_n6086# x1_bar.t5 GND.t34 GND.t33 sky130_fd_pr__nfet_01v8 ad=0p pd=0u as=0p ps=0u w=1.5e+06u l=150000u
X135 a_n732_n5418# x1.t9 GND.t101 GND.t100 sky130_fd_pr__nfet_01v8 ad=0p pd=0u as=0p ps=0u w=1.5e+06u l=150000u
X136 a_425_n2190# x2_bar.t10 GND.t22 GND.t21 sky130_fd_pr__nfet_01v8 ad=9e+11p pd=4.2e+06u as=0p ps=0u w=1.5e+06u l=150000u
X137 VDD.t77 CMOS_s1_0/CMOS_AND_1/A a_n787_n3768# VDD.t76 sky130_fd_pr__pfet_01v8 ad=0p pd=0u as=1.8e+12p ps=7.2e+06u w=3e+06u l=150000u
X138 CMOS_s3_0/CMOS_3in_OR_0/B a_425_n8036# GND.t110 GND.t109 sky130_fd_pr__nfet_01v8 ad=9e+11p pd=4.2e+06u as=0p ps=0u w=1.5e+06u l=150000u
X139 a_425_n1580# CMOS_s1_0/CMOS_XOR_0/XOR a_425_n2190# GND.t112 sky130_fd_pr__nfet_01v8 ad=9e+11p pd=4.2e+06u as=0p ps=0u w=1.5e+06u l=150000u
X140 a_n787_n3768# x3.t8 VDD.t113 VDD.t112 sky130_fd_pr__pfet_01v8 ad=0p pd=0u as=0p ps=0u w=3e+06u l=150000u
X141 CMOS_s0_0/CMOS_AND_1/AND a_425_n540# VDD.t78 VDD.t10 sky130_fd_pr__pfet_01v8 ad=1.8e+12p pd=7.2e+06u as=0p ps=0u w=3e+06u l=150000u
X142 VDD.t86 x3.t9 a_n432_n1580# VDD.t85 sky130_fd_pr__pfet_01v8 ad=0p pd=0u as=0p ps=0u w=3e+06u l=150000u
X143 a_n787_n10224# x3_bar.t12 VDD.t55 VDD.t54 sky130_fd_pr__pfet_01v8 ad=0p pd=0u as=0p ps=0u w=3e+06u l=150000u
X144 VDD.t88 x3_bar.t13 a_n2345_n6996# VDD.t87 sky130_fd_pr__pfet_01v8 ad=0p pd=0u as=0p ps=0u w=3e+06u l=150000u
X145 VDD.t117 x2.t8 a_n1990_n1580# VDD.t116 sky130_fd_pr__pfet_01v8 ad=0p pd=0u as=0p ps=0u w=3e+06u l=150000u
X146 a_n1990_n2190# x2_bar.t11 a_n2140_n2190# GND.t70 sky130_fd_pr__nfet_01v8 ad=9e+11p pd=4.2e+06u as=0p ps=0u w=1.5e+06u l=150000u
X147 a_n2345_n9314# x3.t10 GND.t57 GND.t56 sky130_fd_pr__nfet_01v8 ad=0p pd=0u as=0p ps=0u w=1.5e+06u l=150000u
X148 a_425_n8036# x1.t10 VDD.t153 VDD.t152 sky130_fd_pr__pfet_01v8 ad=1.8e+12p pd=7.2e+06u as=0p ps=0u w=3e+06u l=150000u
X149 CMOS_s2_0/CMOS_3in_OR_0/A a_n787_n6996# GND.t28 GND.t27 sky130_fd_pr__nfet_01v8 ad=9e+11p pd=4.2e+06u as=0p ps=0u w=1.5e+06u l=150000u
X150 GND.t89 CMOS_s1_0/CMOS_3in_OR_0/A a_275_n2858# GND.t21 sky130_fd_pr__nfet_01v8 ad=0p pd=0u as=0p ps=0u w=1.5e+06u l=150000u
X151 CMOS_s0_0/CMOS_AND_0/B a_n787_1038# VDD.t48 VDD.t47 sky130_fd_pr__pfet_01v8 ad=1.8e+12p pd=7.2e+06u as=0p ps=0u w=3e+06u l=150000u
X152 a_n2140_n5418# x3.t11 a_n2290_n4808# VDD.t53 sky130_fd_pr__pfet_01v8 ad=0p pd=0u as=1.8e+12p ps=7.2e+06u w=3e+06u l=150000u
X153 VDD.t147 CMOS_s3_0/CMOS_XOR_0/XOR a_425_n8036# VDD.t146 sky130_fd_pr__pfet_01v8 ad=0p pd=0u as=0p ps=0u w=3e+06u l=150000u
X154 a_275_n2858# CMOS_s1_0/CMOS_3in_OR_0/B GND.t120 GND.t112 sky130_fd_pr__nfet_01v8 ad=0p pd=0u as=0p ps=0u w=1.5e+06u l=150000u
X155 a_425_n8646# x1.t11 GND.t1 GND.t0 sky130_fd_pr__nfet_01v8 ad=9e+11p pd=4.2e+06u as=0p ps=0u w=1.5e+06u l=150000u
X156 CMOS_s1_0/CMOS_3in_OR_0/A a_n787_n3768# VDD.t84 VDD.t83 sky130_fd_pr__pfet_01v8 ad=1.8e+12p pd=7.2e+06u as=0p ps=0u w=3e+06u l=150000u
X157 CMOS_s3_0/CMOS_3in_OR_0/C.t1 a_n2495_n10224# VDD.t73 VDD.t72 sky130_fd_pr__pfet_01v8 ad=0p pd=0u as=0p ps=0u w=3e+06u l=150000u
X158 CMOS_s0_0/CMOS_AND_1/B a_n2140_n540# VDD.t46 VDD.t19 sky130_fd_pr__pfet_01v8 ad=1.8e+12p pd=7.2e+06u as=0p ps=0u w=3e+06u l=150000u
X159 GND.t138 x1_bar.t6 a_n432_n2190# GND.t137 sky130_fd_pr__nfet_01v8 ad=0p pd=0u as=0p ps=0u w=1.5e+06u l=150000u
X160 a_n1990_n8036# x1_bar.t7 a_n2140_n8646# VDD.t26 sky130_fd_pr__pfet_01v8 ad=1.8e+12p pd=7.2e+06u as=0p ps=0u w=3e+06u l=150000u
X161 a_n2290_n4808# x2_bar.t12 VDD.t98 VDD.t97 sky130_fd_pr__pfet_01v8 ad=0p pd=0u as=0p ps=0u w=3e+06u l=150000u
X162 GND.t134 x0_bar.t7 a_n1990_n2190# GND.t133 sky130_fd_pr__nfet_01v8 ad=0p pd=0u as=0p ps=0u w=1.5e+06u l=150000u
X163 a_425_n8036# CMOS_s3_0/CMOS_XOR_0/XOR a_425_n8646# GND.t116 sky130_fd_pr__nfet_01v8 ad=9e+11p pd=4.2e+06u as=0p ps=0u w=1.5e+06u l=150000u
X164 CMOS_s2_0/CMOS_AND_1/A a_n2140_n5418# VDD.t52 VDD.t51 sky130_fd_pr__pfet_01v8 ad=1.8e+12p pd=7.2e+06u as=0p ps=0u w=3e+06u l=150000u
X165 a_n1990_1648# x0_bar.t8 CMOS_s0_0/CMOS_XOR_0/XOR VDD.t21 sky130_fd_pr__pfet_01v8 ad=0p pd=0u as=0p ps=0u w=3e+06u l=150000u
X166 GND.t91 x0_bar.t9 a_n1990_1038# GND.t18 sky130_fd_pr__nfet_01v8 ad=0p pd=0u as=0p ps=0u w=1.5e+06u l=150000u
X167 CMOS_s2_0/CMOS_4in_AND_0/OUT.t1 a_n2345_n6996# VDD.t6 VDD.t5 sky130_fd_pr__pfet_01v8 ad=0p pd=0u as=0p ps=0u w=3e+06u l=150000u
X168 a_n1990_n8646# x0_bar.t10 a_n2140_n8646# GND.t41 sky130_fd_pr__nfet_01v8 ad=9e+11p pd=4.2e+06u as=0p ps=0u w=1.5e+06u l=150000u
X169 a_n2495_n3768# x3_bar.t14 a_n2195_n2858# GND.t68 sky130_fd_pr__nfet_01v8 ad=9e+11p pd=4.2e+06u as=9e+11p ps=4.2e+06u w=1.5e+06u l=150000u
X170 a_n432_n4808# x1_bar.t8 CMOS_s2_0/CMOS_XOR_0/XOR VDD.t29 sky130_fd_pr__pfet_01v8 ad=0p pd=0u as=1.8e+12p ps=7.2e+06u w=3e+06u l=150000u
X171 CMOS_s1_0/CMOS_3in_OR_0/C.t1 a_n2495_n3768# VDD.t50 VDD.t49 sky130_fd_pr__pfet_01v8 ad=0p pd=0u as=0p ps=0u w=3e+06u l=150000u
X172 a_n2140_n5418# x2.t9 a_n2290_n5418# GND.t94 sky130_fd_pr__nfet_01v8 ad=0p pd=0u as=9e+11p ps=4.2e+06u w=1.5e+06u l=150000u
X173 a_n1990_370# x0_bar.t11 a_n2140_n540# GND.t40 sky130_fd_pr__nfet_01v8 ad=0p pd=0u as=0p ps=0u w=1.5e+06u l=150000u
X174 CMOS_s0_0/CMOS_AND_1/A a_n787_n540# VDD.t34 VDD.t33 sky130_fd_pr__pfet_01v8 ad=1.8e+12p pd=7.2e+06u as=0p ps=0u w=3e+06u l=150000u
X175 a_n2195_n2858# x1.t12 a_n2345_n2858# GND.t132 sky130_fd_pr__nfet_01v8 ad=0p pd=0u as=0p ps=0u w=1.5e+06u l=150000u
X176 VDD.t61 x3.t12 a_n432_n8036# VDD.t60 sky130_fd_pr__pfet_01v8 ad=0p pd=0u as=0p ps=0u w=3e+06u l=150000u
X177 CMOS_s2_0/CMOS_XOR_0/XOR x1.t13 a_n732_n4808# VDD.t151 sky130_fd_pr__pfet_01v8 ad=0p pd=0u as=0p ps=0u w=3e+06u l=150000u
X178 GND.t38 CMOS_s0_0/CMOS_AND_1/AND a_1637_1038# GND.t37 sky130_fd_pr__nfet_01v8 ad=0p pd=0u as=0p ps=0u w=1.5e+06u l=150000u
X179 VDD.t126 x0.t13 a_n1990_n8036# VDD.t125 sky130_fd_pr__pfet_01v8 ad=0p pd=0u as=0p ps=0u w=3e+06u l=150000u
X180 a_n2290_n5418# x3.t13 GND.t55 GND.t54 sky130_fd_pr__nfet_01v8 ad=0p pd=0u as=0p ps=0u w=1.5e+06u l=150000u
X181 s2.t0 a_275_n6086# GND.t124 GND.t123 sky130_fd_pr__nfet_01v8 ad=0p pd=0u as=0p ps=0u w=1.5e+06u l=150000u
X182 a_n787_n3768# CMOS_s1_0/CMOS_AND_1/A a_n787_n2858# GND.t86 sky130_fd_pr__nfet_01v8 ad=9e+11p pd=4.2e+06u as=0p ps=0u w=1.5e+06u l=150000u
X183 CMOS_s2_0/CMOS_AND_1/A a_n2140_n5418# GND.t53 GND.t52 sky130_fd_pr__nfet_01v8 ad=9e+11p pd=4.2e+06u as=0p ps=0u w=1.5e+06u l=150000u
X184 a_n1990_n540# x3_bar.t15 a_n2140_n540# VDD.t40 sky130_fd_pr__pfet_01v8 ad=0p pd=0u as=0p ps=0u w=3e+06u l=150000u
X185 GND.t78 CMOS_s3_0/CMOS_3in_OR_0/A a_275_n9314# GND.t0 sky130_fd_pr__nfet_01v8 ad=0p pd=0u as=0p ps=0u w=1.5e+06u l=150000u
X186 GND.t32 x2_bar.t13 a_n432_n8646# GND.t31 sky130_fd_pr__nfet_01v8 ad=0p pd=0u as=0p ps=0u w=1.5e+06u l=150000u
X187 GND.t43 x1_bar.t9 a_n1990_n8646# GND.t42 sky130_fd_pr__nfet_01v8 ad=0p pd=0u as=0p ps=0u w=1.5e+06u l=150000u
R0 CMOS_s2_0/CMOS_4in_AND_0/OUT.t2 CMOS_s2_0/CMOS_4in_AND_0/OUT.t3 1221.07
R1 CMOS_s2_0/CMOS_3in_OR_0/C CMOS_s2_0/CMOS_4in_AND_0/OUT.n0 739.238
R2 CMOS_s2_0/CMOS_3in_OR_0/C CMOS_s2_0/CMOS_4in_AND_0/OUT.t2 633.02
R3 CMOS_s2_0/CMOS_4in_AND_0/OUT CMOS_s2_0/CMOS_4in_AND_0/OUT.t0 114.438
R4 CMOS_s2_0/CMOS_4in_AND_0/OUT.n0 CMOS_s2_0/CMOS_4in_AND_0/OUT 95.237
R5 CMOS_s2_0/CMOS_4in_AND_0/OUT.n0 CMOS_s2_0/CMOS_4in_AND_0/OUT.t1 45.156
R6 VDD.t125 VDD.t12 552.101
R7 VDD.n453 VDD.t51 535.897
R8 VDD.n480 VDD.t49 451.594
R9 VDD.n187 VDD.t119 371.739
R10 VDD.n369 VDD.t108 371.739
R11 VDD.t89 VDD.t60 206.521
R12 VDD.t130 VDD.t138 206.521
R13 VDD.t26 VDD.t35 206.521
R14 VDD.t35 VDD.t144 206.521
R15 VDD.t146 VDD.t152 206.521
R16 VDD.t29 VDD.t37 206.521
R17 VDD.t151 VDD.t149 206.521
R18 VDD.t62 VDD.t154 206.521
R19 VDD.t154 VDD.t131 206.521
R20 VDD.t64 VDD.t14 206.521
R21 VDD.t121 VDD.t85 206.521
R22 VDD.t99 VDD.t31 206.521
R23 VDD.n187 VDD.t146 165.217
R24 VDD.n369 VDD.t64 165.217
R25 VDD.n296 VDD.t26 112.898
R26 VDD.n230 VDD.t130 110.144
R27 VDD.n412 VDD.t151 110.144
R28 VDD.n582 VDD.t99 110.144
R29 VDD.n230 VDD.t89 96.376
R30 VDD.n412 VDD.t29 96.376
R31 VDD.n582 VDD.t121 96.376
R32 VDD.n296 VDD.t125 93.623
R33 VDD.n480 VDD.t62 85.362
R34 VDD.n454 VDD.n453 63.333
R35 VDD.n844 VDD.t39 38.206
R36 VDD.n494 VDD.t53 33.476
R37 VDD.n852 VDD.t142 32.01
R38 VDD.n834 VDD.t21 29.945
R39 VDD.n503 VDD.t97 28.047
R40 VDD.n188 VDD.n187 27.142
R41 VDD.n370 VDD.n369 27.142
R42 VDD.n808 VDD.t100 24.782
R43 VDD.n762 VDD.t41 24.782
R44 VDD.n715 VDD.t74 24.782
R45 VDD.n42 VDD.t66 24.782
R46 VDD.n89 VDD.t54 24.782
R47 VDD.n145 VDD.t43 24.782
R48 VDD.n231 VDD.n230 24.428
R49 VDD.n413 VDD.n412 24.428
R50 VDD.n583 VDD.n582 24.428
R51 VDD.n826 VDD.t16 23.75
R52 VDD.n207 VDD.t153 22.029
R53 VDD.n327 VDD.t145 22.029
R54 VDD.n290 VDD.t126 22.029
R55 VDD.n272 VDD.t13 22.029
R56 VDD.n252 VDD.t139 22.029
R57 VDD.n216 VDD.t61 22.029
R58 VDD.n185 VDD.t147 22.029
R59 VDD.n172 VDD.t120 22.029
R60 VDD.n389 VDD.t15 22.029
R61 VDD.n507 VDD.t98 22.029
R62 VDD.n471 VDD.t96 22.029
R63 VDD.n452 VDD.t52 22.029
R64 VDD.n434 VDD.t150 22.029
R65 VDD.n398 VDD.t38 22.029
R66 VDD.n367 VDD.t65 22.029
R67 VDD.n354 VDD.t109 22.029
R68 VDD.n525 VDD.t11 22.029
R69 VDD.n538 VDD.t122 22.029
R70 VDD.n559 VDD.t105 22.029
R71 VDD.n622 VDD.t20 22.029
R72 VDD.n639 VDD.t117 22.029
R73 VDD.n672 VDD.t90 22.029
R74 VDD.n604 VDD.t32 22.029
R75 VDD.n568 VDD.t86 22.029
R76 VDD.n856 VDD.t143 22.029
R77 VDD.n825 VDD.t17 22.029
R78 VDD.n816 VDD.t101 22.029
R79 VDD.n783 VDD.t48 22.029
R80 VDD.n770 VDD.t42 22.029
R81 VDD.n749 VDD.t107 22.029
R82 VDD.n736 VDD.t82 22.029
R83 VDD.n723 VDD.t75 22.029
R84 VDD.n690 VDD.t4 22.029
R85 VDD.n9 VDD.t111 22.029
R86 VDD.n50 VDD.t67 22.029
R87 VDD.n63 VDD.t69 22.029
R88 VDD.n76 VDD.t71 22.029
R89 VDD.n97 VDD.t55 22.029
R90 VDD.n110 VDD.t73 22.029
R91 VDD.n127 VDD.t57 22.029
R92 VDD.n163 VDD.t137 22.029
R93 VDD.n207 VDD.t2 22.029
R94 VDD.n221 VDD.t25 22.029
R95 VDD.n235 VDD.t124 22.029
R96 VDD.n257 VDD.t128 22.029
R97 VDD.n277 VDD.t6 22.029
R98 VDD.n295 VDD.t88 22.029
R99 VDD.n332 VDD.t115 22.029
R100 VDD.n345 VDD.t59 22.029
R101 VDD.n389 VDD.t80 22.029
R102 VDD.n403 VDD.t84 22.029
R103 VDD.n417 VDD.t77 22.029
R104 VDD.n439 VDD.t113 22.029
R105 VDD.n466 VDD.t50 22.029
R106 VDD.n485 VDD.t63 22.029
R107 VDD.n525 VDD.t78 22.029
R108 VDD.n538 VDD.t8 22.029
R109 VDD.n559 VDD.t118 22.029
R110 VDD.n573 VDD.t34 22.029
R111 VDD.n587 VDD.t94 22.029
R112 VDD.n609 VDD.t103 22.029
R113 VDD.n622 VDD.t46 22.029
R114 VDD.n639 VDD.t148 22.029
R115 VDD.n672 VDD.t23 22.029
R116 VDD.n248 VDD.t127 21.714
R117 VDD.n273 VDD.t5 21.714
R118 VDD.n323 VDD.t114 21.714
R119 VDD.n199 VDD.t1 21.714
R120 VDD.n430 VDD.t112 21.714
R121 VDD.n381 VDD.t79 21.714
R122 VDD.n600 VDD.t102 21.714
R123 VDD.n472 VDD.t95 20.809
R124 VDD.n660 VDD.t30 20.201
R125 VDD.n481 VDD.n480 19.904
R126 VDD.n0 VDD.t141 19.7
R127 VDD.n0 VDD.t44 19.7
R128 VDD.n309 VDD.t92 19.7
R129 VDD.n309 VDD.t28 19.7
R130 VDD.n336 VDD.t155 19.7
R131 VDD.n336 VDD.t132 19.7
R132 VDD.n800 VDD.t18 18.586
R133 VDD.n754 VDD.t106 18.586
R134 VDD.n707 VDD.t36 18.586
R135 VDD.n5 VDD.t110 18.586
R136 VDD.n34 VDD.t133 18.586
R137 VDD.n81 VDD.t70 18.586
R138 VDD.n106 VDD.t72 18.586
R139 VDD.n136 VDD.t140 18.586
R140 VDD.n668 VDD.t22 16.925
R141 VDD.n240 VDD.t123 16.285
R142 VDD.n315 VDD.t27 16.285
R143 VDD.n159 VDD.t136 16.285
R144 VDD.n191 VDD.t9 16.285
R145 VDD.n422 VDD.t76 16.285
R146 VDD.n341 VDD.t58 16.285
R147 VDD.n373 VDD.t134 16.285
R148 VDD.n592 VDD.t93 16.285
R149 VDD.n648 VDD.t40 15.833
R150 VDD.n551 VDD.t104 13.103
R151 VDD.n640 VDD.t116 12.557
R152 VDD.n779 VDD.t47 12.391
R153 VDD.n732 VDD.t81 12.391
R154 VDD.n686 VDD.t3 12.391
R155 VDD.n26 VDD.t0 12.391
R156 VDD.n59 VDD.t68 12.391
R157 VDD.n128 VDD.t56 12.391
R158 VDD.t87 VDD.n296 11.761
R159 VDD.n846 VDD.n843 11.52
R160 VDD.n802 VDD.n799 11.52
R161 VDD.n756 VDD.n753 11.52
R162 VDD.n709 VDD.n706 11.52
R163 VDD.n36 VDD.n33 11.52
R164 VDD.n83 VDD.n80 11.52
R165 VDD.n138 VDD.n135 11.52
R166 VDD.n217 VDD.t24 10.857
R167 VDD.n305 VDD.t91 10.857
R168 VDD.n181 VDD.t135 10.857
R169 VDD.n399 VDD.t83 10.857
R170 VDD.n363 VDD.t129 10.857
R171 VDD.n569 VDD.t33 10.857
R172 VDD.n543 VDD.t7 9.827
R173 VDD.n618 VDD.t19 9.827
R174 VDD.n3 VDD.n2 8.855
R175 VDD.n57 VDD.n56 8.855
R176 VDD.n104 VDD.n103 8.855
R177 VDD.n108 VDD.n107 8.855
R178 VDD.n107 VDD.n106 8.855
R179 VDD.n113 VDD.n112 8.855
R180 VDD.n112 VDD.n111 8.855
R181 VDD.n117 VDD.n116 8.855
R182 VDD.n116 VDD.n115 8.855
R183 VDD.n121 VDD.n120 8.855
R184 VDD.n120 VDD.n119 8.855
R185 VDD.n125 VDD.n124 8.855
R186 VDD.n124 VDD.n123 8.855
R187 VDD.n130 VDD.n129 8.855
R188 VDD.n129 VDD.n128 8.855
R189 VDD.n135 VDD.n134 8.855