* NGSPICE file created from CMOS_PRESENT80_SB.ext - technology: sky130A

.subckt CMOS_XOR GND B A_bar A B_bar XOR VDD
X0 a_90_0# A_bar XOR VDD sky130_fd_pr__pfet_01v8 ad=1.8e+12p pd=7.2e+06u as=1.8e+12p ps=7.2e+06u w=3e+06u l=150000u
X1 VDD B a_90_0# VDD sky130_fd_pr__pfet_01v8 ad=3.6e+12p pd=1.44e+07u as=0p ps=0u w=3e+06u l=150000u
X2 a_n210_n610# A GND GND sky130_fd_pr__nfet_01v8 ad=9e+11p pd=4.2e+06u as=1.8e+12p ps=8.4e+06u w=1.5e+06u l=150000u
X3 GND A_bar a_90_n610# GND sky130_fd_pr__nfet_01v8 ad=0p pd=0u as=9e+11p ps=4.2e+06u w=1.5e+06u l=150000u
X4 XOR A a_n210_0# VDD sky130_fd_pr__pfet_01v8 ad=0p pd=0u as=1.8e+12p ps=7.2e+06u w=3e+06u l=150000u
X5 a_n210_0# B_bar VDD VDD sky130_fd_pr__pfet_01v8 ad=0p pd=0u as=0p ps=0u w=3e+06u l=150000u
X6 a_90_n610# B_bar XOR GND sky130_fd_pr__nfet_01v8 ad=0p pd=0u as=9e+11p ps=4.2e+06u w=1.5e+06u l=150000u
X7 XOR B a_n210_n610# GND sky130_fd_pr__nfet_01v8 ad=0p pd=0u as=0p ps=0u w=1.5e+06u l=150000u
.ends

.subckt CMOS_INV OUT A VDD GND
X0 OUT A GND GND sky130_fd_pr__nfet_01v8 ad=9e+11p pd=4.2e+06u as=9e+11p ps=4.2e+06u w=1.5e+06u l=150000u
X1 OUT A VDD VDD sky130_fd_pr__pfet_01v8 ad=1.8e+12p pd=7.2e+06u as=1.8e+12p ps=7.2e+06u w=3e+06u l=150000u
.ends

.subckt CMOS_4in_XOR VDD x0 x0_bar k0 k0_bar x1 x1_bar k1 k1_bar x2 x2_bar k2 k2_bar
+ x3 x3_bar k3 k3_bar XOR1 XOR0 XOR2 XOR3 XOR0_bar XOR1_bar XOR2_bar XOR3_bar CMOS_XOR_3/GND
XCMOS_XOR_1 CMOS_XOR_3/GND k3 x3_bar x3 k3_bar XOR3 VDD CMOS_XOR
XCMOS_XOR_2 CMOS_XOR_3/GND k1 x1_bar x1 k1_bar XOR1 VDD CMOS_XOR
XCMOS_XOR_3 CMOS_XOR_3/GND k0 x0_bar x0 k0_bar XOR0 VDD CMOS_XOR
XCMOS_INV_0 XOR3_bar XOR3 VDD CMOS_XOR_3/GND CMOS_INV
XCMOS_INV_1 XOR1_bar XOR1 VDD CMOS_XOR_3/GND CMOS_INV
XCMOS_INV_2 XOR0_bar XOR0 VDD CMOS_XOR_3/GND CMOS_INV
XCMOS_INV_3 XOR2_bar XOR2 VDD CMOS_XOR_3/GND CMOS_INV
XCMOS_XOR_0 CMOS_XOR_3/GND k2 x2_bar x2 k2_bar XOR2 VDD CMOS_XOR
.ends

.subckt CMOS_AND GND AND A B VDD
X0 a_n265_0# B VDD VDD sky130_fd_pr__pfet_01v8 ad=1.8e+12p pd=7.2e+06u as=5.4e+12p ps=2.16e+07u w=3e+06u l=150000u
X1 VDD A a_n265_0# VDD sky130_fd_pr__pfet_01v8 ad=0p pd=0u as=0p ps=0u w=3e+06u l=150000u
X2 a_n265_0# A a_n265_n610# GND sky130_fd_pr__nfet_01v8 ad=9e+11p pd=4.2e+06u as=9e+11p ps=4.2e+06u w=1.5e+06u l=150000u
X3 AND a_n265_0# VDD VDD sky130_fd_pr__pfet_01v8 ad=1.8e+12p pd=7.2e+06u as=0p ps=0u w=3e+06u l=150000u
X4 a_n265_n610# B GND GND sky130_fd_pr__nfet_01v8 ad=0p pd=0u as=1.8e+12p ps=8.4e+06u w=1.5e+06u l=150000u
X5 AND a_n265_0# GND GND sky130_fd_pr__nfet_01v8 ad=9e+11p pd=4.2e+06u as=0p ps=0u w=1.5e+06u l=150000u
.ends

.subckt CMOS_3in_OR GND A B C OR VDD
X0 a_n480_n610# B GND GND sky130_fd_pr__nfet_01v8 ad=1.8e+12p pd=8.4e+06u as=2.7e+12p ps=1.26e+07u w=1.5e+06u l=150000u
X1 OR a_n480_n610# VDD VDD sky130_fd_pr__pfet_01v8 ad=1.8e+12p pd=7.2e+06u as=3.6e+12p ps=1.44e+07u w=3e+06u l=150000u
X2 a_n480_n610# C a_n180_0# VDD sky130_fd_pr__pfet_01v8 ad=1.8e+12p pd=7.2e+06u as=1.8e+12p ps=7.2e+06u w=3e+06u l=150000u
X3 GND A a_n480_n610# GND sky130_fd_pr__nfet_01v8 ad=0p pd=0u as=0p ps=0u w=1.5e+06u l=150000u
X4 OR a_n480_n610# GND GND sky130_fd_pr__nfet_01v8 ad=9e+11p pd=4.2e+06u as=0p ps=0u w=1.5e+06u l=150000u
X5 a_n330_0# A VDD VDD sky130_fd_pr__pfet_01v8 ad=1.8e+12p pd=7.2e+06u as=0p ps=0u w=3e+06u l=150000u
X6 a_n180_0# B a_n330_0# VDD sky130_fd_pr__pfet_01v8 ad=0p pd=0u as=0p ps=0u w=3e+06u l=150000u
X7 GND C a_n480_n610# GND sky130_fd_pr__nfet_01v8 ad=0p pd=0u as=0p ps=0u w=1.5e+06u l=150000u
.ends

.subckt CMOS_XNOR GND XNOR B A_bar A B_bar a_n233_n610# VDD
X0 XNOR a_n233_n610# GND GND sky130_fd_pr__nfet_01v8 ad=9e+11p pd=4.2e+06u as=2.7e+12p ps=1.26e+07u w=1.5e+06u l=150000u
X1 a_n383_n610# A GND GND sky130_fd_pr__nfet_01v8 ad=9e+11p pd=4.2e+06u as=0p ps=0u w=1.5e+06u l=150000u
X2 a_n233_n610# B a_n383_n610# GND sky130_fd_pr__nfet_01v8 ad=9e+11p pd=4.2e+06u as=0p ps=0u w=1.5e+06u l=150000u
X3 a_n383_0# B_bar VDD VDD sky130_fd_pr__pfet_01v8 ad=1.8e+12p pd=7.2e+06u as=5.4e+12p ps=2.16e+07u w=3e+06u l=150000u
X4 a_n233_n610# A a_n383_0# VDD sky130_fd_pr__pfet_01v8 ad=1.8e+12p pd=7.2e+06u as=0p ps=0u w=3e+06u l=150000u
X5 a_n83_0# A_bar a_n233_n610# VDD sky130_fd_pr__pfet_01v8 ad=1.8e+12p pd=7.2e+06u as=0p ps=0u w=3e+06u l=150000u
X6 a_n83_n610# B_bar a_n233_n610# GND sky130_fd_pr__nfet_01v8 ad=9e+11p pd=4.2e+06u as=0p ps=0u w=1.5e+06u l=150000u
X7 GND A_bar a_n83_n610# GND sky130_fd_pr__nfet_01v8 ad=0p pd=0u as=0p ps=0u w=1.5e+06u l=150000u
X8 XNOR a_n233_n610# VDD VDD sky130_fd_pr__pfet_01v8 ad=1.8e+12p pd=7.2e+06u as=0p ps=0u w=3e+06u l=150000u
X9 VDD B a_n83_0# VDD sky130_fd_pr__pfet_01v8 ad=0p pd=0u as=0p ps=0u w=3e+06u l=150000u
.ends

.subckt CMOS_3in_AND GND A B C OUT VDD
X0 a_n180_n610# B a_n330_n610# GND sky130_fd_pr__nfet_01v8 ad=9e+11p pd=4.2e+06u as=9e+11p ps=4.2e+06u w=1.5e+06u l=150000u
X1 OUT a_n480_0# VDD VDD sky130_fd_pr__pfet_01v8 ad=1.8e+12p pd=7.2e+06u as=5.4e+12p ps=2.16e+07u w=3e+06u l=150000u
X2 VDD A a_n480_0# VDD sky130_fd_pr__pfet_01v8 ad=0p pd=0u as=3.6e+12p ps=1.44e+07u w=3e+06u l=150000u
X3 a_n330_n610# C GND GND sky130_fd_pr__nfet_01v8 ad=0p pd=0u as=1.8e+12p ps=8.4e+06u w=1.5e+06u l=150000u
X4 OUT a_n480_0# GND GND sky130_fd_pr__nfet_01v8 ad=9e+11p pd=4.2e+06u as=0p ps=0u w=1.5e+06u l=150000u
X5 VDD C a_n480_0# VDD sky130_fd_pr__pfet_01v8 ad=0p pd=0u as=0p ps=0u w=3e+06u l=150000u
X6 a_n480_0# B VDD VDD sky130_fd_pr__pfet_01v8 ad=0p pd=0u as=0p ps=0u w=3e+06u l=150000u
X7 a_n480_0# A a_n180_n610# GND sky130_fd_pr__nfet_01v8 ad=9e+11p pd=4.2e+06u as=0p ps=0u w=1.5e+06u l=150000u
.ends

.subckt CMOS_s3 CMOS_XOR_0/GND x0 x0_bar x1 x1_bar x2 x2_bar x3 x3_bar s3 VDD
XCMOS_AND_0 CMOS_XOR_0/GND CMOS_AND_0/AND CMOS_AND_0/A x1 VDD CMOS_AND
XCMOS_AND_1 CMOS_XOR_0/GND CMOS_AND_1/AND CMOS_AND_1/A x3_bar VDD CMOS_AND
XCMOS_3in_OR_0 CMOS_XOR_0/GND CMOS_AND_1/AND CMOS_AND_0/AND CMOS_3in_OR_0/C s3 VDD
+ CMOS_3in_OR
XCMOS_XNOR_0 CMOS_XOR_0/GND CMOS_AND_1/A x0 x1_bar x1 x0_bar CMOS_XNOR_0/a_n233_n610#
+ VDD CMOS_XNOR
XCMOS_3in_AND_0 CMOS_XOR_0/GND x2_bar x0 x3 CMOS_3in_OR_0/C VDD CMOS_3in_AND
XCMOS_XOR_0 CMOS_XOR_0/GND x3 x2_bar x2 x3_bar CMOS_AND_0/A VDD CMOS_XOR
.ends

.subckt CMOS_s1 CMOS_XOR_0/GND x0 x0_bar x1 x1_bar x2 x2_bar x3 s1 x3_bar VDD
XCMOS_AND_0 CMOS_XOR_0/GND CMOS_AND_0/AND CMOS_AND_0/A x2_bar VDD CMOS_AND
XCMOS_AND_1 CMOS_XOR_0/GND CMOS_AND_1/AND CMOS_AND_1/A x3 VDD CMOS_AND
XCMOS_3in_OR_0 CMOS_XOR_0/GND CMOS_AND_1/AND CMOS_AND_0/AND CMOS_3in_OR_0/C s1 VDD
+ CMOS_3in_OR
XCMOS_XNOR_0 CMOS_XOR_0/GND CMOS_AND_1/A x2 x0_bar x0 x2_bar CMOS_XNOR_0/a_n233_n610#
+ VDD CMOS_XNOR
XCMOS_3in_AND_0 CMOS_XOR_0/GND x3_bar x1 x0_bar CMOS_3in_OR_0/C VDD CMOS_3in_AND
XCMOS_XOR_0 CMOS_XOR_0/GND x3 x1_bar x1 x3_bar CMOS_AND_0/A VDD CMOS_XOR
.ends

.subckt CMOS_4in_AND GND OUT A B C D VDD
X0 a_n405_0# A a_n105_n610# GND sky130_fd_pr__nfet_01v8 ad=9e+11p pd=4.2e+06u as=9e+11p ps=4.2e+06u w=1.5e+06u l=150000u
X1 VDD C a_n405_0# VDD sky130_fd_pr__pfet_01v8 ad=7.2e+12p pd=2.88e+07u as=3.6e+12p ps=1.44e+07u w=3e+06u l=150000u
X2 a_n405_0# B VDD VDD sky130_fd_pr__pfet_01v8 ad=0p pd=0u as=0p ps=0u w=3e+06u l=150000u
X3 a_n405_0# D VDD VDD sky130_fd_pr__pfet_01v8 ad=0p pd=0u as=0p ps=0u w=3e+06u l=150000u
X4 VDD A a_n405_0# VDD sky130_fd_pr__pfet_01v8 ad=0p pd=0u as=0p ps=0u w=3e+06u l=150000u
X5 a_n105_n610# B a_n255_n610# GND sky130_fd_pr__nfet_01v8 ad=0p pd=0u as=9e+11p ps=4.2e+06u w=1.5e+06u l=150000u
X6 OUT a_n405_0# GND GND sky130_fd_pr__nfet_01v8 ad=9e+11p pd=4.2e+06u as=1.8e+12p ps=8.4e+06u w=1.5e+06u l=150000u
X7 a_n255_n610# C a_n405_n610# GND sky130_fd_pr__nfet_01v8 ad=0p pd=0u as=9e+11p ps=4.2e+06u w=1.5e+06u l=150000u
X8 OUT a_n405_0# VDD VDD sky130_fd_pr__pfet_01v8 ad=1.8e+12p pd=7.2e+06u as=0p ps=0u w=3e+06u l=150000u
X9 a_n405_n610# D GND GND sky130_fd_pr__nfet_01v8 ad=0p pd=0u as=0p ps=0u w=1.5e+06u l=150000u
.ends

.subckt CMOS_s2 CMOS_XOR_0/GND x0 x0_bar x1 x2 x2_bar x3 s2 x3_bar x1_bar VDD
XCMOS_AND_0 CMOS_XOR_0/GND CMOS_AND_0/AND CMOS_AND_0/A x2_bar VDD CMOS_AND
XCMOS_AND_1 CMOS_XOR_0/GND CMOS_AND_1/AND CMOS_AND_1/A x1_bar VDD CMOS_AND
XCMOS_3in_OR_0 CMOS_XOR_0/GND CMOS_AND_1/AND CMOS_AND_0/AND CMOS_3in_OR_0/C s2 VDD
+ CMOS_3in_OR
XCMOS_4in_AND_0 CMOS_XOR_0/GND CMOS_3in_OR_0/C x3_bar x1 x0 x2 VDD CMOS_4in_AND
XCMOS_XNOR_0 CMOS_XOR_0/GND CMOS_AND_1/A x2 x3_bar x3 x2_bar CMOS_XNOR_0/a_n233_n610#
+ VDD CMOS_XNOR
XCMOS_XOR_0 CMOS_XOR_0/GND x0 x1_bar x1 x0_bar CMOS_AND_0/A VDD CMOS_XOR
.ends

.subckt CMOS_OR GND OR B A VDD
X0 a_n265_0# A VDD VDD sky130_fd_pr__pfet_01v8 ad=1.8e+12p pd=7.2e+06u as=3.6e+12p ps=1.44e+07u w=3e+06u l=150000u
X1 a_n265_n610# B a_n265_0# VDD sky130_fd_pr__pfet_01v8 ad=1.8e+12p pd=7.2e+06u as=0p ps=0u w=3e+06u l=150000u
X2 GND B a_n265_n610# GND sky130_fd_pr__nfet_01v8 ad=2.7e+12p pd=1.26e+07u as=9e+11p ps=4.2e+06u w=1.5e+06u l=150000u
X3 OR a_n265_n610# VDD VDD sky130_fd_pr__pfet_01v8 ad=1.8e+12p pd=7.2e+06u as=0p ps=0u w=3e+06u l=150000u
X4 a_n265_n610# A GND GND sky130_fd_pr__nfet_01v8 ad=0p pd=0u as=0p ps=0u w=1.5e+06u l=150000u
X5 OR a_n265_n610# GND GND sky130_fd_pr__nfet_01v8 ad=9e+11p pd=4.2e+06u as=0p ps=0u w=1.5e+06u l=150000u
.ends

.subckt CMOS_s0 x3 x2_bar x2 x1_bar x1 x0 CMOS_OR_1/GND s0 x3_bar x0_bar VDD
XCMOS_AND_0 CMOS_OR_1/GND CMOS_OR_0/A CMOS_AND_0/A CMOS_OR_1/OR VDD CMOS_AND
XCMOS_AND_1 CMOS_OR_1/GND CMOS_OR_0/B CMOS_AND_1/A CMOS_AND_1/B VDD CMOS_AND
XCMOS_AND_2 CMOS_OR_1/GND CMOS_AND_1/A x2 x1_bar VDD CMOS_AND
XCMOS_XNOR_0 CMOS_OR_1/GND CMOS_AND_1/B x0 x3_bar x3 x0_bar li_n1053_n744# VDD CMOS_XNOR
XCMOS_OR_0 CMOS_OR_1/GND s0 CMOS_OR_0/B CMOS_OR_0/A VDD CMOS_OR
XCMOS_OR_1 CMOS_OR_1/GND CMOS_OR_1/OR x2_bar x1 VDD CMOS_OR
XCMOS_XOR_0 CMOS_OR_1/GND x3 x0_bar x0 x3_bar CMOS_AND_0/A VDD CMOS_XOR
.ends

.subckt CMOS_sbox x3 x2 x1_bar x1 x0_bar x0 CMOS_s0_0/CMOS_OR_1/GND s0 s1 s2 s3 x2_bar
+ x3_bar VDD
XCMOS_s3_0 CMOS_s0_0/CMOS_OR_1/GND x0 x0_bar x1 x1_bar x2 x2_bar x3 x3_bar s3 VDD
+ CMOS_s3
XCMOS_s1_0 CMOS_s0_0/CMOS_OR_1/GND x0 x0_bar x1 x1_bar x2 x2_bar x3 s1 x3_bar VDD
+ CMOS_s1
XCMOS_s2_0 CMOS_s0_0/CMOS_OR_1/GND x0 x0_bar x1 x2 x2_bar x3 s2 x3_bar x1_bar VDD
+ CMOS_s2
XCMOS_s0_0 x3 x2_bar x2 x1_bar x1 x0 CMOS_s0_0/CMOS_OR_1/GND s0 x3_bar x0_bar VDD
+ CMOS_s0
.ends

.subckt CMOS_PRESENT80_R1 k0 k0_bar x0 x0_bar x1_bar x1 k1_bar k1 k2 k2_bar x2 x2_bar
+ x3_bar x3 k3_bar k3 s2 s1 s0 s3 CMOS_4in_XOR_0/CMOS_XOR_3/GND VDD
XCMOS_4in_XOR_0 VDD x0 x0_bar k0 k0_bar x1 x1_bar k1 k1_bar x2 x2_bar k2 k2_bar x3
+ x3_bar k3 k3_bar CMOS_sbox_0/x1 CMOS_sbox_0/x0 CMOS_sbox_0/x2 CMOS_sbox_0/x3 CMOS_sbox_0/x0_bar
+ CMOS_sbox_0/x1_bar CMOS_sbox_0/x2_bar CMOS_sbox_0/x3_bar CMOS_4in_XOR_0/CMOS_XOR_3/GND
+ CMOS_4in_XOR
XCMOS_sbox_0 CMOS_sbox_0/x3 CMOS_sbox_0/x2 CMOS_sbox_0/x1_bar CMOS_sbox_0/x1 CMOS_sbox_0/x0_bar
+ CMOS_sbox_0/x0 CMOS_4in_XOR_0/CMOS_XOR_3/GND s0 s1 s2 s3 CMOS_sbox_0/x2_bar CMOS_sbox_0/x3_bar
+ VDD CMOS_sbox
.ends

.subckt CMOS_PRESENT80_SB8andSB11 CMOS_PRESENT80_R1_1/s3 CMOS_PRESENT80_R1_2/k2_bar
+ CMOS_PRESENT80_R1_1/s2 CMOS_PRESENT80_R1_2/x2_bar CMOS_PRESENT80_R1_1/s1 CMOS_PRESENT80_R1_0/k1_bar
+ CMOS_PRESENT80_R1_1/s0 CMOS_PRESENT80_R1_0/x1_bar CMOS_PRESENT80_R1_3/k3 CMOS_PRESENT80_R1_0/k3
+ CMOS_PRESENT80_R1_3/k2 CMOS_PRESENT80_R1_1/x3 CMOS_PRESENT80_R1_0/k2 CMOS_PRESENT80_R1_3/k3_bar
+ CMOS_PRESENT80_R1_3/k1 CMOS_PRESENT80_R1_3/x3_bar CMOS_PRESENT80_R1_1/x2 CMOS_PRESENT80_R1_0/k1
+ CMOS_PRESENT80_R1_3/k0 CMOS_PRESENT80_R1_1/x1 CMOS_PRESENT80_R1_0/k0 CMOS_PRESENT80_R1_1/k2_bar
+ CMOS_PRESENT80_R1_1/x2_bar CMOS_PRESENT80_R1_1/x0 CMOS_PRESENT80_R1_3/k0_bar CMOS_PRESENT80_R1_3/x0_bar
+ CMOS_PRESENT80_R1_3/s3 CMOS_PRESENT80_R1_2/k3_bar CMOS_PRESENT80_R1_0/s3 CMOS_PRESENT80_R1_2/x3_bar
+ CMOS_PRESENT80_R1_3/s2 CMOS_PRESENT80_R1_0/s2 CMOS_PRESENT80_R1_3/s1 CMOS_PRESENT80_R1_0/k2_bar
+ CMOS_PRESENT80_R1_0/x2_bar CMOS_PRESENT80_R1_0/s1 CMOS_PRESENT80_R1_3/s0 CMOS_PRESENT80_R1_2/k0_bar
+ CMOS_PRESENT80_R1_2/x0_bar CMOS_PRESENT80_R1_0/s0 CMOS_PRESENT80_R1_2/k3 CMOS_PRESENT80_R1_3/x3
+ CMOS_PRESENT80_R1_2/k2 CMOS_PRESENT80_R1_0/x3 CMOS_PRESENT80_R1_3/x2 CMOS_PRESENT80_R1_2/k1
+ CMOS_PRESENT80_R1_0/x2 CMOS_PRESENT80_R1_1/k3_bar CMOS_PRESENT80_R1_3/x1 CMOS_PRESENT80_R1_1/x3_bar
+ CMOS_PRESENT80_R1_2/k0 CMOS_PRESENT80_R1_0/x1 CMOS_PRESENT80_R1_3/k1_bar CMOS_PRESENT80_R1_3/x0
+ CMOS_PRESENT80_R1_3/x1_bar CMOS_PRESENT80_R1_0/x0 CMOS_PRESENT80_R1_1/k0_bar CMOS_PRESENT80_R1_1/x0_bar
+ CMOS_PRESENT80_R1_2/s3 CMOS_PRESENT80_R1_2/s2 CMOS_PRESENT80_R1_0/k3_bar CMOS_PRESENT80_R1_0/x3_bar
+ CMOS_PRESENT80_R1_2/s1 CMOS_PRESENT80_R1_2/k1_bar CMOS_PRESENT80_R1_2/x1_bar CMOS_PRESENT80_R1_3/VDD
+ CMOS_PRESENT80_R1_2/s0 CMOS_PRESENT80_R1_0/k0_bar CMOS_PRESENT80_R1_0/x0_bar CMOS_PRESENT80_R1_1/k3
+ CMOS_PRESENT80_R1_2/x3 CMOS_PRESENT80_R1_1/k2 CMOS_PRESENT80_R1_2/x2 CMOS_PRESENT80_R1_1/k1
+ CMOS_PRESENT80_R1_3/k2_bar CMOS_PRESENT80_R1_2/x1 CMOS_PRESENT80_R1_3/x2_bar CMOS_PRESENT80_R1_1/k0
+ CMOS_PRESENT80_R1_2/x0 CMOS_PRESENT80_R1_1/k1_bar CMOS_PRESENT80_R1_1/x1_bar CMOS_PRESENT80_R1_3/CMOS_4in_XOR_0/CMOS_XOR_3/GND
XCMOS_PRESENT80_R1_0 CMOS_PRESENT80_R1_0/k0 CMOS_PRESENT80_R1_0/k0_bar CMOS_PRESENT80_R1_0/x0
+ CMOS_PRESENT80_R1_0/x0_bar CMOS_PRESENT80_R1_0/x1_bar CMOS_PRESENT80_R1_0/x1 CMOS_PRESENT80_R1_0/k1_bar
+ CMOS_PRESENT80_R1_0/k1 CMOS_PRESENT80_R1_0/k2 CMOS_PRESENT80_R1_0/k2_bar CMOS_PRESENT80_R1_0/x2
+ CMOS_PRESENT80_R1_0/x2_bar CMOS_PRESENT80_R1_0/x3_bar CMOS_PRESENT80_R1_0/x3 CMOS_PRESENT80_R1_0/k3_bar
+ CMOS_PRESENT80_R1_0/k3 CMOS_PRESENT80_R1_0/s2 CMOS_PRESENT80_R1_0/s1 CMOS_PRESENT80_R1_0/s0
+ CMOS_PRESENT80_R1_0/s3 CMOS_PRESENT80_R1_3/CMOS_4in_XOR_0/CMOS_XOR_3/GND CMOS_PRESENT80_R1_3/VDD
+ CMOS_PRESENT80_R1
XCMOS_PRESENT80_R1_2 CMOS_PRESENT80_R1_2/k0 CMOS_PRESENT80_R1_2/k0_bar CMOS_PRESENT80_R1_2/x0
+ CMOS_PRESENT80_R1_2/x0_bar CMOS_PRESENT80_R1_2/x1_bar CMOS_PRESENT80_R1_2/x1 CMOS_PRESENT80_R1_2/k1_bar
+ CMOS_PRESENT80_R1_2/k1 CMOS_PRESENT80_R1_2/k2 CMOS_PRESENT80_R1_2/k2_bar CMOS_PRESENT80_R1_2/x2
+ CMOS_PRESENT80_R1_2/x2_bar CMOS_PRESENT80_R1_2/x3_bar CMOS_PRESENT80_R1_2/x3 CMOS_PRESENT80_R1_2/k3_bar
+ CMOS_PRESENT80_R1_2/k3 CMOS_PRESENT80_R1_2/s2 CMOS_PRESENT80_R1_2/s1 CMOS_PRESENT80_R1_2/s0
+ CMOS_PRESENT80_R1_2/s3 CMOS_PRESENT80_R1_3/CMOS_4in_XOR_0/CMOS_XOR_3/GND CMOS_PRESENT80_R1_3/VDD
+ CMOS_PRESENT80_R1
XCMOS_PRESENT80_R1_1 CMOS_PRESENT80_R1_1/k0 CMOS_PRESENT80_R1_1/k0_bar CMOS_PRESENT80_R1_1/x0
+ CMOS_PRESENT80_R1_1/x0_bar CMOS_PRESENT80_R1_1/x1_bar CMOS_PRESENT80_R1_1/x1 CMOS_PRESENT80_R1_1/k1_bar
+ CMOS_PRESENT80_R1_1/k1 CMOS_PRESENT80_R1_1/k2 CMOS_PRESENT80_R1_1/k2_bar CMOS_PRESENT80_R1_1/x2
+ CMOS_PRESENT80_R1_1/x2_bar CMOS_PRESENT80_R1_1/x3_bar CMOS_PRESENT80_R1_1/x3 CMOS_PRESENT80_R1_1/k3_bar
+ CMOS_PRESENT80_R1_1/k3 CMOS_PRESENT80_R1_1/s2 CMOS_PRESENT80_R1_1/s1 CMOS_PRESENT80_R1_1/s0
+ CMOS_PRESENT80_R1_1/s3 CMOS_PRESENT80_R1_3/CMOS_4in_XOR_0/CMOS_XOR_3/GND CMOS_PRESENT80_R1_3/VDD
+ CMOS_PRESENT80_R1
XCMOS_PRESENT80_R1_3 CMOS_PRESENT80_R1_3/k0 CMOS_PRESENT80_R1_3/k0_bar CMOS_PRESENT80_R1_3/x0
+ CMOS_PRESENT80_R1_3/x0_bar CMOS_PRESENT80_R1_3/x1_bar CMOS_PRESENT80_R1_3/x1 CMOS_PRESENT80_R1_3/k1_bar
+ CMOS_PRESENT80_R1_3/k1 CMOS_PRESENT80_R1_3/k2 CMOS_PRESENT80_R1_3/k2_bar CMOS_PRESENT80_R1_3/x2
+ CMOS_PRESENT80_R1_3/x2_bar CMOS_PRESENT80_R1_3/x3_bar CMOS_PRESENT80_R1_3/x3 CMOS_PRESENT80_R1_3/k3_bar
+ CMOS_PRESENT80_R1_3/k3 CMOS_PRESENT80_R1_3/s2 CMOS_PRESENT80_R1_3/s1 CMOS_PRESENT80_R1_3/s0
+ CMOS_PRESENT80_R1_3/s3 CMOS_PRESENT80_R1_3/CMOS_4in_XOR_0/CMOS_XOR_3/GND CMOS_PRESENT80_R1_3/VDD
+ CMOS_PRESENT80_R1
.ends

.subckt CMOS_PRESENT80_SB12andSB15 CMOS_PRESENT80_R1_1/s3 CMOS_PRESENT80_R1_2/x2_bar
+ CMOS_PRESENT80_R1_1/s2 CMOS_PRESENT80_R1_2/k2_bar CMOS_PRESENT80_R1_1/s1 CMOS_PRESENT80_R1_0/k1_bar
+ CMOS_PRESENT80_R1_0/x1_bar CMOS_PRESENT80_R1_1/s0 CMOS_PRESENT80_R1_3/k3 CMOS_PRESENT80_R1_0/k3
+ CMOS_PRESENT80_R1_3/k2 CMOS_PRESENT80_R1_3/k3_bar CMOS_PRESENT80_R1_1/x3 CMOS_PRESENT80_R1_0/k2
+ CMOS_PRESENT80_R1_3/k1 CMOS_PRESENT80_R1_3/x3_bar CMOS_PRESENT80_R1_1/x2 CMOS_PRESENT80_R1_0/k1
+ CMOS_PRESENT80_R1_3/k0 CMOS_PRESENT80_R1_1/x1 CMOS_PRESENT80_R1_1/k2_bar CMOS_PRESENT80_R1_1/x2_bar
+ CMOS_PRESENT80_R1_0/k0 CMOS_PRESENT80_R1_1/x0 CMOS_PRESENT80_R1_3/k0_bar CMOS_PRESENT80_R1_3/x0_bar
+ CMOS_PRESENT80_R1_0/s3 CMOS_PRESENT80_R1_3/s3 CMOS_PRESENT80_R1_3/s2 CMOS_PRESENT80_R1_2/k3_bar
+ CMOS_PRESENT80_R1_2/x3_bar CMOS_PRESENT80_R1_3/s1 CMOS_PRESENT80_R1_0/s2 CMOS_PRESENT80_R1_2/k0_bar
+ CMOS_PRESENT80_R1_0/k2_bar CMOS_PRESENT80_R1_3/s0 CMOS_PRESENT80_R1_0/s1 CMOS_PRESENT80_R1_0/x2_bar
+ CMOS_PRESENT80_R1_2/k3 CMOS_PRESENT80_R1_0/s0 CMOS_PRESENT80_R1_2/x0_bar CMOS_PRESENT80_R1_2/k2
+ CMOS_PRESENT80_R1_3/x3 CMOS_PRESENT80_R1_2/k1 CMOS_PRESENT80_R1_0/x3 CMOS_PRESENT80_R1_0/x2
+ CMOS_PRESENT80_R1_3/x2 CMOS_PRESENT80_R1_1/k3_bar CMOS_PRESENT80_R1_3/x1 CMOS_PRESENT80_R1_2/k0
+ CMOS_PRESENT80_R1_0/x1 CMOS_PRESENT80_R1_1/x3_bar CMOS_PRESENT80_R1_3/x0 CMOS_PRESENT80_R1_3/x1_bar
+ CMOS_PRESENT80_R1_0/x0 CMOS_PRESENT80_R1_3/k1_bar CMOS_PRESENT80_R1_1/k0_bar CMOS_PRESENT80_R1_1/x0_bar
+ CMOS_PRESENT80_R1_2/s3 CMOS_PRESENT80_R1_2/s2 CMOS_PRESENT80_R1_0/k3_bar CMOS_PRESENT80_R1_0/x3_bar
+ CMOS_PRESENT80_R1_2/s1 CMOS_PRESENT80_R1_2/k1_bar CMOS_PRESENT80_R1_2/x1_bar CMOS_PRESENT80_R1_2/s0
+ CMOS_PRESENT80_R1_3/VDD CMOS_PRESENT80_R1_0/x0_bar CMOS_PRESENT80_R1_1/k3 CMOS_PRESENT80_R1_0/k0_bar
+ CMOS_PRESENT80_R1_2/x3 CMOS_PRESENT80_R1_1/k2 CMOS_PRESENT80_R1_3/k2_bar CMOS_PRESENT80_R1_2/x2
+ CMOS_PRESENT80_R1_1/k1 CMOS_PRESENT80_R1_2/x1 CMOS_PRESENT80_R1_1/k0 CMOS_PRESENT80_R1_2/x0
+ CMOS_PRESENT80_R1_3/x2_bar CMOS_PRESENT80_R1_1/k1_bar CMOS_PRESENT80_R1_1/x1_bar
+ CMOS_PRESENT80_R1_3/CMOS_4in_XOR_0/CMOS_XOR_3/GND
XCMOS_PRESENT80_R1_0 CMOS_PRESENT80_R1_0/k0 CMOS_PRESENT80_R1_0/k0_bar CMOS_PRESENT80_R1_0/x0
+ CMOS_PRESENT80_R1_0/x0_bar CMOS_PRESENT80_R1_0/x1_bar CMOS_PRESENT80_R1_0/x1 CMOS_PRESENT80_R1_0/k1_bar
+ CMOS_PRESENT80_R1_0/k1 CMOS_PRESENT80_R1_0/k2 CMOS_PRESENT80_R1_0/k2_bar CMOS_PRESENT80_R1_0/x2
+ CMOS_PRESENT80_R1_0/x2_bar CMOS_PRESENT80_R1_0/x3_bar CMOS_PRESENT80_R1_0/x3 CMOS_PRESENT80_R1_0/k3_bar
+ CMOS_PRESENT80_R1_0/k3 CMOS_PRESENT80_R1_0/s2 CMOS_PRESENT80_R1_0/s1 CMOS_PRESENT80_R1_0/s0
+ CMOS_PRESENT80_R1_0/s3 CMOS_PRESENT80_R1_3/CMOS_4in_XOR_0/CMOS_XOR_3/GND CMOS_PRESENT80_R1_3/VDD
+ CMOS_PRESENT80_R1
XCMOS_PRESENT80_R1_2 CMOS_PRESENT80_R1_2/k0 CMOS_PRESENT80_R1_2/k0_bar CMOS_PRESENT80_R1_2/x0
+ CMOS_PRESENT80_R1_2/x0_bar CMOS_PRESENT80_R1_2/x1_bar CMOS_PRESENT80_R1_2/x1 CMOS_PRESENT80_R1_2/k1_bar
+ CMOS_PRESENT80_R1_2/k1 CMOS_PRESENT80_R1_2/k2 CMOS_PRESENT80_R1_2/k2_bar CMOS_PRESENT80_R1_2/x2
+ CMOS_PRESENT80_R1_2/x2_bar CMOS_PRESENT80_R1_2/x3_bar CMOS_PRESENT80_R1_2/x3 CMOS_PRESENT80_R1_2/k3_bar
+ CMOS_PRESENT80_R1_2/k3 CMOS_PRESENT80_R1_2/s2 CMOS_PRESENT80_R1_2/s1 CMOS_PRESENT80_R1_2/s0
+ CMOS_PRESENT80_R1_2/s3 CMOS_PRESENT80_R1_3/CMOS_4in_XOR_0/CMOS_XOR_3/GND CMOS_PRESENT80_R1_3/VDD
+ CMOS_PRESENT80_R1
XCMOS_PRESENT80_R1_1 CMOS_PRESENT80_R1_1/k0 CMOS_PRESENT80_R1_1/k0_bar CMOS_PRESENT80_R1_1/x0
+ CMOS_PRESENT80_R1_1/x0_bar CMOS_PRESENT80_R1_1/x1_bar CMOS_PRESENT80_R1_1/x1 CMOS_PRESENT80_R1_1/k1_bar
+ CMOS_PRESENT80_R1_1/k1 CMOS_PRESENT80_R1_1/k2 CMOS_PRESENT80_R1_1/k2_bar CMOS_PRESENT80_R1_1/x2
+ CMOS_PRESENT80_R1_1/x2_bar CMOS_PRESENT80_R1_1/x3_bar CMOS_PRESENT80_R1_1/x3 CMOS_PRESENT80_R1_1/k3_bar
+ CMOS_PRESENT80_R1_1/k3 CMOS_PRESENT80_R1_1/s2 CMOS_PRESENT80_R1_1/s1 CMOS_PRESENT80_R1_1/s0
+ CMOS_PRESENT80_R1_1/s3 CMOS_PRESENT80_R1_3/CMOS_4in_XOR_0/CMOS_XOR_3/GND CMOS_PRESENT80_R1_3/VDD
+ CMOS_PRESENT80_R1
XCMOS_PRESENT80_R1_3 CMOS_PRESENT80_R1_3/k0 CMOS_PRESENT80_R1_3/k0_bar CMOS_PRESENT80_R1_3/x0
+ CMOS_PRESENT80_R1_3/x0_bar CMOS_PRESENT80_R1_3/x1_bar CMOS_PRESENT80_R1_3/x1 CMOS_PRESENT80_R1_3/k1_bar
+ CMOS_PRESENT80_R1_3/k1 CMOS_PRESENT80_R1_3/k2 CMOS_PRESENT80_R1_3/k2_bar CMOS_PRESENT80_R1_3/x2
+ CMOS_PRESENT80_R1_3/x2_bar CMOS_PRESENT80_R1_3/x3_bar CMOS_PRESENT80_R1_3/x3 CMOS_PRESENT80_R1_3/k3_bar
+ CMOS_PRESENT80_R1_3/k3 CMOS_PRESENT80_R1_3/s2 CMOS_PRESENT80_R1_3/s1 CMOS_PRESENT80_R1_3/s0
+ CMOS_PRESENT80_R1_3/s3 CMOS_PRESENT80_R1_3/CMOS_4in_XOR_0/CMOS_XOR_3/GND CMOS_PRESENT80_R1_3/VDD
+ CMOS_PRESENT80_R1
.ends

.subckt CMOS_PRESENT80_SB4andSB7 CMOS_PRESENT80_R1_1/s3 CMOS_PRESENT80_R1_2/k2_bar
+ CMOS_PRESENT80_R1_1/s2 CMOS_PRESENT80_R1_2/x2_bar CMOS_PRESENT80_R1_1/s1 CMOS_PRESENT80_R1_0/k1_bar
+ CMOS_PRESENT80_R1_1/s0 CMOS_PRESENT80_R1_0/x1_bar CMOS_PRESENT80_R1_3/k3 CMOS_PRESENT80_R1_0/k3
+ CMOS_PRESENT80_R1_3/k2 CMOS_PRESENT80_R1_1/x3 CMOS_PRESENT80_R1_0/k2 CMOS_PRESENT80_R1_3/k3_bar
+ CMOS_PRESENT80_R1_3/k1 CMOS_PRESENT80_R1_3/x3_bar CMOS_PRESENT80_R1_1/x2 CMOS_PRESENT80_R1_0/k1
+ CMOS_PRESENT80_R1_3/k0 CMOS_PRESENT80_R1_1/x1 CMOS_PRESENT80_R1_0/k0 CMOS_PRESENT80_R1_1/k2_bar
+ CMOS_PRESENT80_R1_1/x2_bar CMOS_PRESENT80_R1_1/x0 CMOS_PRESENT80_R1_3/k0_bar CMOS_PRESENT80_R1_3/x0_bar
+ CMOS_PRESENT80_R1_3/s3 CMOS_PRESENT80_R1_2/k3_bar CMOS_PRESENT80_R1_0/s3 CMOS_PRESENT80_R1_2/x3_bar
+ CMOS_PRESENT80_R1_3/s2 CMOS_PRESENT80_R1_0/s2 CMOS_PRESENT80_R1_3/s1 CMOS_PRESENT80_R1_0/k2_bar
+ CMOS_PRESENT80_R1_0/s1 CMOS_PRESENT80_R1_0/x2_bar CMOS_PRESENT80_R1_3/s0 CMOS_PRESENT80_R1_2/k0_bar
+ CMOS_PRESENT80_R1_0/s0 CMOS_PRESENT80_R1_2/x0_bar CMOS_PRESENT80_R1_2/k3 CMOS_PRESENT80_R1_3/x3
+ CMOS_PRESENT80_R1_2/k2 CMOS_PRESENT80_R1_0/x3 CMOS_PRESENT80_R1_3/x2 CMOS_PRESENT80_R1_2/k1
+ CMOS_PRESENT80_R1_0/x2 CMOS_PRESENT80_R1_1/k3_bar CMOS_PRESENT80_R1_3/x1 CMOS_PRESENT80_R1_1/x3_bar
+ CMOS_PRESENT80_R1_2/k0 CMOS_PRESENT80_R1_0/x1 CMOS_PRESENT80_R1_3/k1_bar CMOS_PRESENT80_R1_3/x0
+ CMOS_PRESENT80_R1_3/x1_bar CMOS_PRESENT80_R1_0/x0 CMOS_PRESENT80_R1_1/k0_bar CMOS_PRESENT80_R1_1/x0_bar
+ CMOS_PRESENT80_R1_2/s3 CMOS_PRESENT80_R1_2/s2 CMOS_PRESENT80_R1_0/k3_bar CMOS_PRESENT80_R1_0/x3_bar
+ CMOS_PRESENT80_R1_2/s1 CMOS_PRESENT80_R1_2/k1_bar CMOS_PRESENT80_R1_2/x1_bar CMOS_PRESENT80_R1_3/VDD
+ CMOS_PRESENT80_R1_2/s0 CMOS_PRESENT80_R1_0/k0_bar CMOS_PRESENT80_R1_0/x0_bar CMOS_PRESENT80_R1_1/k3
+ CMOS_PRESENT80_R1_2/x3 CMOS_PRESENT80_R1_1/k2 CMOS_PRESENT80_R1_2/x2 CMOS_PRESENT80_R1_1/k1
+ CMOS_PRESENT80_R1_3/k2_bar CMOS_PRESENT80_R1_3/x2_bar CMOS_PRESENT80_R1_2/x1 CMOS_PRESENT80_R1_1/k0
+ CMOS_PRESENT80_R1_2/x0 CMOS_PRESENT80_R1_1/k1_bar CMOS_PRESENT80_R1_1/x1_bar CMOS_PRESENT80_R1_3/CMOS_4in_XOR_0/CMOS_XOR_3/GND
XCMOS_PRESENT80_R1_0 CMOS_PRESENT80_R1_0/k0 CMOS_PRESENT80_R1_0/k0_bar CMOS_PRESENT80_R1_0/x0
+ CMOS_PRESENT80_R1_0/x0_bar CMOS_PRESENT80_R1_0/x1_bar CMOS_PRESENT80_R1_0/x1 CMOS_PRESENT80_R1_0/k1_bar
+ CMOS_PRESENT80_R1_0/k1 CMOS_PRESENT80_R1_0/k2 CMOS_PRESENT80_R1_0/k2_bar CMOS_PRESENT80_R1_0/x2
+ CMOS_PRESENT80_R1_0/x2_bar CMOS_PRESENT80_R1_0/x3_bar CMOS_PRESENT80_R1_0/x3 CMOS_PRESENT80_R1_0/k3_bar
+ CMOS_PRESENT80_R1_0/k3 CMOS_PRESENT80_R1_0/s2 CMOS_PRESENT80_R1_0/s1 CMOS_PRESENT80_R1_0/s0
+ CMOS_PRESENT80_R1_0/s3 CMOS_PRESENT80_R1_3/CMOS_4in_XOR_0/CMOS_XOR_3/GND CMOS_PRESENT80_R1_3/VDD
+ CMOS_PRESENT80_R1
XCMOS_PRESENT80_R1_2 CMOS_PRESENT80_R1_2/k0 CMOS_PRESENT80_R1_2/k0_bar CMOS_PRESENT80_R1_2/x0
+ CMOS_PRESENT80_R1_2/x0_bar CMOS_PRESENT80_R1_2/x1_bar CMOS_PRESENT80_R1_2/x1 CMOS_PRESENT80_R1_2/k1_bar
+ CMOS_PRESENT80_R1_2/k1 CMOS_PRESENT80_R1_2/k2 CMOS_PRESENT80_R1_2/k2_bar CMOS_PRESENT80_R1_2/x2
+ CMOS_PRESENT80_R1_2/x2_bar CMOS_PRESENT80_R1_2/x3_bar CMOS_PRESENT80_R1_2/x3 CMOS_PRESENT80_R1_2/k3_bar
+ CMOS_PRESENT80_R1_2/k3 CMOS_PRESENT80_R1_2/s2 CMOS_PRESENT80_R1_2/s1 CMOS_PRESENT80_R1_2/s0
+ CMOS_PRESENT80_R1_2/s3 CMOS_PRESENT80_R1_3/CMOS_4in_XOR_0/CMOS_XOR_3/GND CMOS_PRESENT80_R1_3/VDD
+ CMOS_PRESENT80_R1
XCMOS_PRESENT80_R1_1 CMOS_PRESENT80_R1_1/k0 CMOS_PRESENT80_R1_1/k0_bar CMOS_PRESENT80_R1_1/x0
+ CMOS_PRESENT80_R1_1/x0_bar CMOS_PRESENT80_R1_1/x1_bar CMOS_PRESENT80_R1_1/x1 CMOS_PRESENT80_R1_1/k1_bar
+ CMOS_PRESENT80_R1_1/k1 CMOS_PRESENT80_R1_1/k2 CMOS_PRESENT80_R1_1/k2_bar CMOS_PRESENT80_R1_1/x2
+ CMOS_PRESENT80_R1_1/x2_bar CMOS_PRESENT80_R1_1/x3_bar CMOS_PRESENT80_R1_1/x3 CMOS_PRESENT80_R1_1/k3_bar
+ CMOS_PRESENT80_R1_1/k3 CMOS_PRESENT80_R1_1/s2 CMOS_PRESENT80_R1_1/s1 CMOS_PRESENT80_R1_1/s0
+ CMOS_PRESENT80_R1_1/s3 CMOS_PRESENT80_R1_3/CMOS_4in_XOR_0/CMOS_XOR_3/GND CMOS_PRESENT80_R1_3/VDD
+ CMOS_PRESENT80_R1
XCMOS_PRESENT80_R1_3 CMOS_PRESENT80_R1_3/k0 CMOS_PRESENT80_R1_3/k0_bar CMOS_PRESENT80_R1_3/x0
+ CMOS_PRESENT80_R1_3/x0_bar CMOS_PRESENT80_R1_3/x1_bar CMOS_PRESENT80_R1_3/x1 CMOS_PRESENT80_R1_3/k1_bar
+ CMOS_PRESENT80_R1_3/k1 CMOS_PRESENT80_R1_3/k2 CMOS_PRESENT80_R1_3/k2_bar CMOS_PRESENT80_R1_3/x2
+ CMOS_PRESENT80_R1_3/x2_bar CMOS_PRESENT80_R1_3/x3_bar CMOS_PRESENT80_R1_3/x3 CMOS_PRESENT80_R1_3/k3_bar
+ CMOS_PRESENT80_R1_3/k3 CMOS_PRESENT80_R1_3/s2 CMOS_PRESENT80_R1_3/s1 CMOS_PRESENT80_R1_3/s0
+ CMOS_PRESENT80_R1_3/s3 CMOS_PRESENT80_R1_3/CMOS_4in_XOR_0/CMOS_XOR_3/GND CMOS_PRESENT80_R1_3/VDD
+ CMOS_PRESENT80_R1
.ends

.subckt CMOS_PRESENT80_SB0andSB3 CMOS_PRESENT80_R1_1/s3 CMOS_PRESENT80_R1_2/k2_bar
+ CMOS_PRESENT80_R1_1/s2 CMOS_PRESENT80_R1_2/x2_bar CMOS_PRESENT80_R1_1/s1 CMOS_PRESENT80_R1_0/k1_bar
+ CMOS_PRESENT80_R1_3/k3 CMOS_PRESENT80_R1_0/x1_bar CMOS_PRESENT80_R1_1/s0 CMOS_PRESENT80_R1_0/k3
+ CMOS_PRESENT80_R1_3/k2 CMOS_PRESENT80_R1_3/k3_bar CMOS_PRESENT80_R1_0/k2 CMOS_PRESENT80_R1_3/k1
+ CMOS_PRESENT80_R1_1/x3 CMOS_PRESENT80_R1_3/x3_bar CMOS_PRESENT80_R1_0/k1 CMOS_PRESENT80_R1_3/k0
+ CMOS_PRESENT80_R1_1/x2 CMOS_PRESENT80_R1_1/x1 CMOS_PRESENT80_R1_1/k2_bar CMOS_PRESENT80_R1_1/x2_bar
+ CMOS_PRESENT80_R1_0/k0 CMOS_PRESENT80_R1_1/x0 CMOS_PRESENT80_R1_3/k0_bar CMOS_PRESENT80_R1_3/x0_bar
+ CMOS_PRESENT80_R1_2/x3_bar CMOS_PRESENT80_R1_2/k3_bar CMOS_PRESENT80_R1_3/s3 CMOS_PRESENT80_R1_0/s3
+ CMOS_PRESENT80_R1_3/s2 CMOS_PRESENT80_R1_0/s2 CMOS_PRESENT80_R1_3/s1 CMOS_PRESENT80_R1_0/k2_bar
+ CMOS_PRESENT80_R1_2/k0_bar CMOS_PRESENT80_R1_3/s0 CMOS_PRESENT80_R1_0/x2_bar CMOS_PRESENT80_R1_2/x0_bar
+ CMOS_PRESENT80_R1_0/s0 CMOS_PRESENT80_R1_2/k3 CMOS_PRESENT80_R1_3/x3 CMOS_PRESENT80_R1_2/k2
+ CMOS_PRESENT80_R1_0/x3 CMOS_PRESENT80_R1_3/x2 CMOS_PRESENT80_R1_2/k1 CMOS_PRESENT80_R1_0/x2
+ CMOS_PRESENT80_R1_0/x1 CMOS_PRESENT80_R1_2/k0 CMOS_PRESENT80_R1_1/k3_bar CMOS_PRESENT80_R1_1/x3_bar
+ CMOS_PRESENT80_R1_3/x1 CMOS_PRESENT80_R1_0/x0 CMOS_PRESENT80_R1_3/k1_bar CMOS_PRESENT80_R1_3/x1_bar
+ CMOS_PRESENT80_R1_3/x0 CMOS_PRESENT80_R1_1/k0_bar CMOS_PRESENT80_R1_1/x0_bar CMOS_PRESENT80_R1_2/s3
+ CMOS_PRESENT80_R1_3/VDD CMOS_PRESENT80_R1_2/s2 CMOS_PRESENT80_R1_0/k3_bar CMOS_PRESENT80_R1_2/s1
+ CMOS_PRESENT80_R1_0/x3_bar CMOS_PRESENT80_R1_2/k1_bar CMOS_PRESENT80_R1_2/s0 CMOS_PRESENT80_R1_2/x1_bar
+ CMOS_PRESENT80_R1_1/k3 CMOS_PRESENT80_R1_0/x0_bar CMOS_PRESENT80_R1_0/k0_bar CMOS_PRESENT80_R1_2/x3
+ CMOS_PRESENT80_R1_1/k2 CMOS_PRESENT80_R1_2/x2 CMOS_PRESENT80_R1_1/k1 CMOS_PRESENT80_R1_3/k2_bar
+ CMOS_PRESENT80_R1_1/k0 CMOS_PRESENT80_R1_2/x1 CMOS_PRESENT80_R1_2/x0 CMOS_PRESENT80_R1_0/s1
+ CMOS_PRESENT80_R1_3/x2_bar CMOS_PRESENT80_R1_1/k1_bar CMOS_PRESENT80_R1_1/x1_bar
+ CMOS_PRESENT80_R1_3/CMOS_4in_XOR_0/CMOS_XOR_3/GND
XCMOS_PRESENT80_R1_0 CMOS_PRESENT80_R1_0/k0 CMOS_PRESENT80_R1_0/k0_bar CMOS_PRESENT80_R1_0/x0
+ CMOS_PRESENT80_R1_0/x0_bar CMOS_PRESENT80_R1_0/x1_bar CMOS_PRESENT80_R1_0/x1 CMOS_PRESENT80_R1_0/k1_bar
+ CMOS_PRESENT80_R1_0/k1 CMOS_PRESENT80_R1_0/k2 CMOS_PRESENT80_R1_0/k2_bar CMOS_PRESENT80_R1_0/x2
+ CMOS_PRESENT80_R1_0/x2_bar CMOS_PRESENT80_R1_0/x3_bar CMOS_PRESENT80_R1_0/x3 CMOS_PRESENT80_R1_0/k3_bar
+ CMOS_PRESENT80_R1_0/k3 CMOS_PRESENT80_R1_0/s2 CMOS_PRESENT80_R1_0/s1 CMOS_PRESENT80_R1_0/s0
+ CMOS_PRESENT80_R1_0/s3 CMOS_PRESENT80_R1_3/CMOS_4in_XOR_0/CMOS_XOR_3/GND CMOS_PRESENT80_R1_3/VDD
+ CMOS_PRESENT80_R1
XCMOS_PRESENT80_R1_2 CMOS_PRESENT80_R1_2/k0 CMOS_PRESENT80_R1_2/k0_bar CMOS_PRESENT80_R1_2/x0
+ CMOS_PRESENT80_R1_2/x0_bar CMOS_PRESENT80_R1_2/x1_bar CMOS_PRESENT80_R1_2/x1 CMOS_PRESENT80_R1_2/k1_bar
+ CMOS_PRESENT80_R1_2/k1 CMOS_PRESENT80_R1_2/k2 CMOS_PRESENT80_R1_2/k2_bar CMOS_PRESENT80_R1_2/x2
+ CMOS_PRESENT80_R1_2/x2_bar CMOS_PRESENT80_R1_2/x3_bar CMOS_PRESENT80_R1_2/x3 CMOS_PRESENT80_R1_2/k3_bar
+ CMOS_PRESENT80_R1_2/k3 CMOS_PRESENT80_R1_2/s2 CMOS_PRESENT80_R1_2/s1 CMOS_PRESENT80_R1_2/s0
+ CMOS_PRESENT80_R1_2/s3 CMOS_PRESENT80_R1_3/CMOS_4in_XOR_0/CMOS_XOR_3/GND CMOS_PRESENT80_R1_3/VDD
+ CMOS_PRESENT80_R1
XCMOS_PRESENT80_R1_1 CMOS_PRESENT80_R1_1/k0 CMOS_PRESENT80_R1_1/k0_bar CMOS_PRESENT80_R1_1/x0
+ CMOS_PRESENT80_R1_1/x0_bar CMOS_PRESENT80_R1_1/x1_bar CMOS_PRESENT80_R1_1/x1 CMOS_PRESENT80_R1_1/k1_bar
+ CMOS_PRESENT80_R1_1/k1 CMOS_PRESENT80_R1_1/k2 CMOS_PRESENT80_R1_1/k2_bar CMOS_PRESENT80_R1_1/x2
+ CMOS_PRESENT80_R1_1/x2_bar CMOS_PRESENT80_R1_1/x3_bar CMOS_PRESENT80_R1_1/x3 CMOS_PRESENT80_R1_1/k3_bar
+ CMOS_PRESENT80_R1_1/k3 CMOS_PRESENT80_R1_1/s2 CMOS_PRESENT80_R1_1/s1 CMOS_PRESENT80_R1_1/s0
+ CMOS_PRESENT80_R1_1/s3 CMOS_PRESENT80_R1_3/CMOS_4in_XOR_0/CMOS_XOR_3/GND CMOS_PRESENT80_R1_3/VDD
+ CMOS_PRESENT80_R1
XCMOS_PRESENT80_R1_3 CMOS_PRESENT80_R1_3/k0 CMOS_PRESENT80_R1_3/k0_bar CMOS_PRESENT80_R1_3/x0
+ CMOS_PRESENT80_R1_3/x0_bar CMOS_PRESENT80_R1_3/x1_bar CMOS_PRESENT80_R1_3/x1 CMOS_PRESENT80_R1_3/k1_bar
+ CMOS_PRESENT80_R1_3/k1 CMOS_PRESENT80_R1_3/k2 CMOS_PRESENT80_R1_3/k2_bar CMOS_PRESENT80_R1_3/x2
+ CMOS_PRESENT80_R1_3/x2_bar CMOS_PRESENT80_R1_3/x3_bar CMOS_PRESENT80_R1_3/x3 CMOS_PRESENT80_R1_3/k3_bar
+ CMOS_PRESENT80_R1_3/k3 CMOS_PRESENT80_R1_3/s2 CMOS_PRESENT80_R1_3/s1 CMOS_PRESENT80_R1_3/s0
+ CMOS_PRESENT80_R1_3/s3 CMOS_PRESENT80_R1_3/CMOS_4in_XOR_0/CMOS_XOR_3/GND CMOS_PRESENT80_R1_3/VDD
+ CMOS_PRESENT80_R1
.ends

.subckt CMOS_PRESENT80_SB x0 x0_bar x1 x2 x3 x4 x5 x6 x7 x1_bar x2_bar x3_bar x4_bar
+ x5_bar x6_bar x7_bar k0 k2 k3 k4 k5 k6 k7 k0_bar k1_bar k2_bar k3_bar k4_bar k5_bar
+ k6_bar k7_bar k15_bar x15_bar x14_bar x13_bar x12_bar x11_bar x10_bar x9_bar x8_bar
+ x15 x8 x9 x10 x11 x12 x14 x13 k8 k9 k10 k11 k12 k13 k14 k15 k14_bar k13_bar k12_bar
+ k11_bar k10_bar k9_bar k8_bar x23_bar x22_bar x21_bar x20_bar x19_bar x18_bar x17_bar
+ x16_bar k23_bar k22_bar k21_bar k20_bar k19_bar x23 x22 x21 x20 x19 x18 x17 x16
+ k18_bar k17_bar k16_bar k17 k16 k23 k22 k21 k20 k19 k18 x29_bar x31_bar x31 x30
+ x29 x28 x27 x26 x25 x24 x28_bar x27_bar x26_bar x25_bar k24 k25 k31_bar k30_bar
+ k26 k27 k28 k29 k30 k31 k29_bar k28_bar k27_bar k26_bar k25_bar x24_bar x30_bar
+ k24_bar k1 x32 x33 x34 x35 x36 x37 x38 x39 k32 k33 k34 k35 k36 k37 k38 k39 x32_bar