* NGSPICE file created from CMOS_s3_flat.ext - technology: sky130A

.subckt CMOS_s3_flat GND x0 x0_bar x1 x1_bar x2 x2_bar x3 x3_bar s3 VDD
X0 s3.t1 a_2442_n779# GND.t23 GND.t22 sky130_fd_pr__nfet_01v8 ad=0p pd=0u as=0p ps=0u w=1.5e+06u l=150000u
X1 a_2592_n1689# CMOS_AND_1/AND VDD.t23 VDD.t22 sky130_fd_pr__pfet_01v8 ad=1.8e+12p pd=7.2e+06u as=0p ps=0u w=3e+06u l=150000u
X2 VDD.t9 x3.t0 a_1735_499# VDD.t8 sky130_fd_pr__pfet_01v8 ad=0p pd=0u as=1.8e+12p ps=7.2e+06u w=3e+06u l=150000u
X3 a_2592_n111# x1.t0 GND.t29 GND.t20 sky130_fd_pr__nfet_01v8 ad=9e+11p pd=4.2e+06u as=0p ps=0u w=1.5e+06u l=150000u
X4 a_2592_499# CMOS_AND_0/A a_2592_n111# GND.t26 sky130_fd_pr__nfet_01v8 ad=9e+11p pd=4.2e+06u as=0p ps=0u w=1.5e+06u l=150000u
X5 CMOS_AND_1/AND a_1380_n1689# GND.t35 GND.t34 sky130_fd_pr__nfet_01v8 ad=9e+11p pd=4.2e+06u as=0p ps=0u w=1.5e+06u l=150000u
X6 a_1380_n1689# x3_bar.t0 VDD.t3 VDD.t2 sky130_fd_pr__pfet_01v8 ad=1.8e+12p pd=7.2e+06u as=0p ps=0u w=3e+06u l=150000u
X7 a_2742_n1689# CMOS_AND_0/AND a_2592_n1689# VDD.t34 sky130_fd_pr__pfet_01v8 ad=1.8e+12p pd=7.2e+06u as=0p ps=0u w=3e+06u l=150000u
X8 VDD.t11 x0.t0 a_177_499# VDD.t10 sky130_fd_pr__pfet_01v8 ad=0p pd=0u as=1.8e+12p ps=7.2e+06u w=3e+06u l=150000u
X9 CMOS_AND_1/A a_27_n111# VDD.t27 VDD.t26 sky130_fd_pr__pfet_01v8 ad=1.8e+12p pd=7.2e+06u as=0p ps=0u w=3e+06u l=150000u
X10 GND.t21 CMOS_AND_1/AND a_2442_n779# GND.t20 sky130_fd_pr__nfet_01v8 ad=0p pd=0u as=1.8e+12p ps=8.4e+06u w=1.5e+06u l=150000u
X11 a_2442_n779# CMOS_AND_0/AND GND.t30 GND.t26 sky130_fd_pr__nfet_01v8 ad=0p pd=0u as=0p ps=0u w=1.5e+06u l=150000u
X12 VDD.t36 CMOS_AND_1/A a_1380_n1689# VDD.t35 sky130_fd_pr__pfet_01v8 ad=0p pd=0u as=0p ps=0u w=3e+06u l=150000u
X13 GND.t9 x1_bar.t0 a_177_n111# GND.t8 sky130_fd_pr__nfet_01v8 ad=0p pd=0u as=9e+11p ps=4.2e+06u w=1.5e+06u l=150000u
X14 a_27_n111# x0.t1 a_n123_n111# GND.t3 sky130_fd_pr__nfet_01v8 ad=9e+11p pd=4.2e+06u as=9e+11p ps=4.2e+06u w=1.5e+06u l=150000u
X15 VDD.t13 x2_bar.t0 a_n328_n1689# VDD.t12 sky130_fd_pr__pfet_01v8 ad=0p pd=0u as=3.6e+12p ps=1.44e+07u w=3e+06u l=150000u
X16 a_27_n111# x1.t1 a_n123_499# VDD.t37 sky130_fd_pr__pfet_01v8 ad=1.8e+12p pd=7.2e+06u as=1.8e+12p ps=7.2e+06u w=3e+06u l=150000u
X17 CMOS_3in_OR_0/C.t1 a_n328_n1689# GND.t16 GND.t15 sky130_fd_pr__nfet_01v8 ad=0p pd=0u as=0p ps=0u w=1.5e+06u l=150000u
X18 GND.t14 CMOS_3in_OR_0/C.t2 a_2442_n779# GND.t13 sky130_fd_pr__nfet_01v8 ad=0p pd=0u as=0p ps=0u w=1.5e+06u l=150000u
X19 VDD.t1 x3.t1 a_n328_n1689# VDD.t0 sky130_fd_pr__pfet_01v8 ad=0p pd=0u as=0p ps=0u w=3e+06u l=150000u
X20 CMOS_AND_0/AND a_2592_499# VDD.t31 VDD.t30 sky130_fd_pr__pfet_01v8 ad=1.8e+12p pd=7.2e+06u as=0p ps=0u w=3e+06u l=150000u
X21 a_1435_n111# x2.t0 GND.t2 GND.t1 sky130_fd_pr__nfet_01v8 ad=9e+11p pd=4.2e+06u as=0p ps=0u w=1.5e+06u l=150000u
X22 a_1380_n779# x3_bar.t1 GND.t18 GND.t17 sky130_fd_pr__nfet_01v8 ad=9e+11p pd=4.2e+06u as=0p ps=0u w=1.5e+06u l=150000u
X23 a_1380_n1689# CMOS_AND_1/A a_1380_n779# GND.t31 sky130_fd_pr__nfet_01v8 ad=9e+11p pd=4.2e+06u as=0p ps=0u w=1.5e+06u l=150000u
X24 s3.t0 a_2442_n779# VDD.t25 VDD.t24 sky130_fd_pr__pfet_01v8 ad=0p pd=0u as=0p ps=0u w=3e+06u l=150000u
X25 a_1435_499# x3_bar.t2 VDD.t6 VDD.t5 sky130_fd_pr__pfet_01v8 ad=1.8e+12p pd=7.2e+06u as=0p ps=0u w=3e+06u l=150000u
X26 a_n123_499# x0_bar.t0 VDD.t19 VDD.t18 sky130_fd_pr__pfet_01v8 ad=0p pd=0u as=0p ps=0u w=3e+06u l=150000u
X27 a_n28_n779# x0.t2 a_n178_n779# GND.t5 sky130_fd_pr__nfet_01v8 ad=9e+11p pd=4.2e+06u as=9e+11p ps=4.2e+06u w=1.5e+06u l=150000u
X28 a_n328_n1689# x2_bar.t1 a_n28_n779# GND.t4 sky130_fd_pr__nfet_01v8 ad=9e+11p pd=4.2e+06u as=0p ps=0u w=1.5e+06u l=150000u
X29 VDD.t29 CMOS_AND_0/A a_2592_499# VDD.t28 sky130_fd_pr__pfet_01v8 ad=0p pd=0u as=1.8e+12p ps=7.2e+06u w=3e+06u l=150000u
X30 a_n328_n1689# x0.t3 VDD.t16 VDD.t15 sky130_fd_pr__pfet_01v8 ad=0p pd=0u as=0p ps=0u w=3e+06u l=150000u
X31 CMOS_AND_1/AND a_1380_n1689# VDD.t39 VDD.t38 sky130_fd_pr__pfet_01v8 ad=1.8e+12p pd=7.2e+06u as=0p ps=0u w=3e+06u l=150000u
X32 a_1735_499# x2_bar.t2 CMOS_AND_0/A VDD.t17 sky130_fd_pr__pfet_01v8 ad=0p pd=0u as=1.8e+12p ps=7.2e+06u w=3e+06u l=150000u
X33 a_177_499# x1_bar.t1 a_27_n111# VDD.t4 sky130_fd_pr__pfet_01v8 ad=0p pd=0u as=0p ps=0u w=3e+06u l=150000u
X34 CMOS_AND_0/A x3.t2 a_1435_n111# GND.t0 sky130_fd_pr__nfet_01v8 ad=9e+11p pd=4.2e+06u as=0p ps=0u w=1.5e+06u l=150000u
X35 a_1735_n111# x3_bar.t3 CMOS_AND_0/A GND.t10 sky130_fd_pr__nfet_01v8 ad=9e+11p pd=4.2e+06u as=0p ps=0u w=1.5e+06u l=150000u
X36 CMOS_AND_0/AND a_2592_499# GND.t28 GND.t27 sky130_fd_pr__nfet_01v8 ad=9e+11p pd=4.2e+06u as=0p ps=0u w=1.5e+06u l=150000u
X37 CMOS_3in_OR_0/C.t0 a_n328_n1689# VDD.t21 VDD.t20 sky130_fd_pr__pfet_01v8 ad=0p pd=0u as=0p ps=0u w=3e+06u l=150000u
X38 a_2442_n779# CMOS_3in_OR_0/C.t3 a_2742_n1689# VDD.t14 sky130_fd_pr__pfet_01v8 ad=1.8e+12p pd=7.2e+06u as=0p ps=0u w=3e+06u l=150000u
X39 a_n123_n111# x1.t2 GND.t33 GND.t32 sky130_fd_pr__nfet_01v8 ad=0p pd=0u as=0p ps=0u w=1.5e+06u l=150000u
X40 a_n178_n779# x3.t3 GND.t12 GND.t11 sky130_fd_pr__nfet_01v8 ad=0p pd=0u as=0p ps=0u w=1.5e+06u l=150000u
X41 a_177_n111# x0_bar.t1 a_27_n111# GND.t19 sky130_fd_pr__nfet_01v8 ad=0p pd=0u as=0p ps=0u w=1.5e+06u l=150000u
X42 a_2592_499# x1.t3 VDD.t33 VDD.t32 sky130_fd_pr__pfet_01v8 ad=0p pd=0u as=0p ps=0u w=3e+06u l=150000u
X43 CMOS_AND_1/A a_27_n111# GND.t25 GND.t24 sky130_fd_pr__nfet_01v8 ad=9e+11p pd=4.2e+06u as=0p ps=0u w=1.5e+06u l=150000u
X44 GND.t7 x2_bar.t3 a_1735_n111# GND.t6 sky130_fd_pr__nfet_01v8 ad=0p pd=0u as=0p ps=0u w=1.5e+06u l=150000u
X45 CMOS_AND_0/A x2.t1 a_1435_499# VDD.t7 sky130_fd_pr__pfet_01v8 ad=0p pd=0u as=0p ps=0u w=3e+06u l=150000u
R0 GND.n115 GND.t24 2383.33
R1 GND.n84 GND.t0 159.607
R2 GND.n116 GND.n115 150.98
R3 GND.n150 GND.t3 150.98
R4 GND.n161 GND.t32 133.725
R5 GND.n92 GND.t1 133.725
R6 GND.n142 GND.t19 125.098
R7 GND.n72 GND.t10 125.098
R8 GND.n161 GND.t11 103.529
R9 GND.n45 GND.t20 103.529
R10 GND.n92 GND.t17 103.529
R11 GND.n134 GND.t8 99.215
R12 GND.n63 GND.t6 99.215
R13 GND.n124 GND.t15 77.647
R14 GND.n169 GND.t5 77.647
R15 GND.n5 GND.t22 77.647
R16 GND.n36 GND.t26 77.647
R17 GND.n84 GND.t31 77.647
R18 GND.n146 GND.t4 51.764
R19 GND.n14 GND.t27 51.764
R20 GND.n28 GND.t13 51.764
R21 GND.n63 GND.t34 51.764
R22 GND.n154 GND 37.93
R23 GND.n160 GND.t33 30.21
R24 GND.n155 GND.t12 30.21
R25 GND.n128 GND.t16 30.21
R26 GND.n101 GND.t18 30.21
R27 GND.n67 GND.t35 30.21
R28 GND.n27 GND.t14 30.21
R29 GND.n9 GND.t23 30.21
R30 GND.n18 GND.t28 30.21
R31 GND.n53 GND.t29 30.21
R32 GND.n62 GND.t7 30.21
R33 GND.n96 GND.t2 30.21
R34 GND.n114 GND.t25 30.21
R35 GND.n133 GND.t9 30.21
R36 GND.n0 GND.t30 24
R37 GND.n0 GND.t21 24
R38 GND.n38 GND.n35 11.52
R39 GND.n86 GND.n83 11.52
R40 GND.n3 GND.n2 9.154
R41 GND.n60 GND.n59 9.154
R42 GND.n65 GND.n64 9.154
R43 GND.n64 GND.n63 9.154
R44 GND.n70 GND.n69 9.154
R45 GND.n69 GND.n68 9.154
R46 GND.n74 GND.n73 9.154
R47 GND.n73 GND.n72 9.154
R48 GND.n78 GND.n77 9.154
R49 GND.n77 GND.n76 9.154
R50 GND.n83 GND.n82 9.154
R51 GND.n82 GND.n81 9.154
R52 GND.n86 GND.n85 9.154
R53 GND.n85 GND.n84 9.154
R54 GND.n90 GND.n89 9.154
R55 GND.n89 GND.n88 9.154
R56 GND.n94 GND.n93 9.154
R57 GND.n93 GND.n92 9.154
R58 GND.n99 GND.n98 9.154
R59 GND.n7 GND.n6 9.154
R60 GND.n6 GND.n5 9.154
R61 GND.n12 GND.n11 9.154
R62 GND.n11 GND.n10 9.154
R63 GND.n16 GND.n15 9.154
R64 GND.n15 GND.n14 9.154
R65 GND.n21 GND.n20 9.154
R66 GND.n20 GND.n19 9.154
R67 GND.n25 GND.n24 9.154
R68 GND.n24 GND.n23 9.154
R69 GND.n30 GND.n29 9.154
R70 GND.n29 GND.n28 9.154
R71 GND.n35 GND.n34 9.154
R72 GND.n34 GND.n33 9.154
R73 GND.n38 GND.n37 9.154
R74 GND.n37 GND.n36 9.154
R75 GND.n42 GND.n41 9.154
R76 GND.n41 GND.n40 9.154
R77 GND.n47 GND.n46 9.154
R78 GND.n46 GND.n45 9.154
R79 GND.n51 GND.n50 9.154
R80 GND.n109 GND.n108 9.154
R81 GND.n112 GND.n111 9.154
R82 GND.n118 GND.n117 9.154
R83 GND.n117 GND.n116 9.154
R84 GND.n122 GND.n121 9.154
R85 GND.n121 GND.n120 9.154
R86 GND.n126 GND.n125 9.154
R87 GND.n125 GND.n124 9.154
R88 GND.n131 GND.n130 9.154
R89 GND.n130 GND.n129 9.154
R90 GND.n136 GND.n135 9.154
R91 GND.n135 GND.n134 9.154
R92 GND.n140 GND.n139 9.154
R93 GND.n139 GND.n138 9.154
R94 GND.n144 GND.n143 9.154
R95 GND.n143 GND.n142 9.154
R96 GND.n148 GND.n147 9.154
R97 GND.n147 GND.n146 9.154
R98 GND.n152 GND.n151 9.154
R99 GND.n151 GND.n150 9.154
R100 GND.n171 GND.n170 9.154
R101 GND.n170 GND.n169 9.154
R102 GND.n167 GND.n166 9.154
R103 GND.n166 GND.n165 9.154
R104 GND.n163 GND.n162 9.154
R105 GND.n162 GND.n161 9.154
R106 GND.n158 GND.n157 9.154
R107 GND.n2 GND.n1 8.108
R108 GND.n108 GND.n107 8.108
R109 GND.n44 GND.n0 6.21
R110 GND.n155 GND.n154 4.706
R111 GND.n103 GND.n102 4.65
R112 GND.n61 GND.n60 4.65
R113 GND.n66 GND.n65 4.65
R114 GND.n71 GND.n70 4.65
R115 GND.n75 GND.n74 4.65
R116 GND.n79 GND.n78 4.65
R117 GND.n83 GND.n80 4.65
R118 GND.n87 GND.n86 4.65
R119 GND.n91 GND.n90 4.65
R120 GND.n95 GND.n94 4.65
R121 GND.n100 GND.n99 4.65
R122 GND.n57 GND.n56 4.65
R123 GND.n55 GND.n54 4.65
R124 GND.n8 GND.n7 4.65
R125 GND.n13 GND.n12 4.65
R126 GND.n17 GND.n16 4.65
R127 GND.n22 GND.n21 4.65
R128 GND.n26 GND.n25 4.65
R129 GND.n31 GND.n30 4.65
R130 GND.n35 GND.n32 4.65
R131 GND.n39 GND.n38 4.65
R132 GND.n43 GND.n42 4.65
R133 GND.n48 GND.n47 4.65
R134 GND.n52 GND.n51 4.65
R135 GND.n110 GND.n109 4.65
R136 GND.n113 GND.n112 4.65
R137 GND.n119 GND.n118 4.65
R138 GND.n123 GND.n122 4.65
R139 GND.n127 GND.n126 4.65
R140 GND.n132 GND.n131 4.65
R141 GND.n137 GND.n136 4.65
R142 GND.n141 GND.n140 4.65
R143 GND.n145 GND.n144 4.65
R144 GND.n149 GND.n148 4.65
R145 GND.n153 GND.n152 4.65
R146 GND.n172 GND.n171 4.65
R147 GND.n168 GND.n167 4.65
R148 GND.n164 GND.n163 4.65
R149 GND.n159 GND.n158 4.65
R150 GND.n105 GND.n104 4.65
R151 GND.n50 GND.n49 2.759
R152 GND.n4 GND.n3 2.562
R153 GND.n8 GND.n4 1.145
R154 GND.n57 GND.n55 0.525
R155 GND.n107 GND.n106 0.524
R156 GND.n105 GND.n103 0.507
R157 GND.n17 GND.n13 0.09
R158 GND.n26 GND.n22 0.09
R159 GND.n32 GND.n31 0.09
R160 GND.n43 GND.n39 0.09
R161 GND.n52 GND.n48 0.09
R162 GND.n61 GND.n57 0.09
R163 GND.n75 GND.n71 0.09
R164 GND.n79 GND.n75 0.09
R165 GND.n80 GND.n79 0.09
R166 GND.n91 GND.n87 0.09
R167 GND.n95 GND.n91 0.09
R168 GND.n110 GND.n105 0.09
R169 GND.n113 GND.n110 0.09
R170 GND.n123 GND.n119 0.09
R171 GND.n127 GND.n123 0.09
R172 GND.n141 GND.n137 0.09
R173 GND.n145 GND.n141 0.09
R174 GND.n149 GND.n145 0.09
R175 GND.n153 GND.n149 0.09
R176 GND.n172 GND.n168 0.09
R177 GND.n168 GND.n164 0.09
R178 GND.n18 GND.n17 0.078
R179 GND.n31 GND.n27 0.078
R180 GND.n67 GND.n66 0.078
R181 GND.n98 GND.n97 0.074
R182 GND.n157 GND.n156 0.074
R183 GND.n9 GND.n8 0.072
R184 GND.n114 GND.n113 0.071
R185 GND.n128 GND.n127 0.071
R186 GND.n39 GND 0.065
R187 GND.n66 GND.n62 0.065
R188 GND.n87 CMOS_AND_1/GND 0.065
R189 GND.n137 GND.n133 0.065
R190 CMOS_3in_AND_0/GND GND.n172 0.065
R191 GND.n48 GND.n44 0.063
R192 GND.n55 GND.n53 0.056
R193 GND.n103 GND.n101 0.056
R194 GND.n96 GND.n95 0.055
R195 GND.n164 GND.n160 0.055
R196 GND.n59 GND.n58 0.047
R197 GND.n100 GND.n96 0.035
R198 GND.n160 GND.n159 0.035
R199 GND.n53 GND.n52 0.033
R200 GND.n101 GND.n100 0.033
R201 GND.n159 GND.n155 0.033
R202 GND.n44 GND.n43 0.026
R203 GND.n32 GND 0.025
R204 GND.n62 GND.n61 0.025
R205 GND.n80 CMOS_AND_1/GND 0.025
R206 GND.n133 GND.n132 0.025
R207 CMOS_3in_AND_0/GND GND.n153 0.025
R208 GND.n119 GND.n114 0.018
R209 GND.n132 GND.n128 0.018
R210 GND.n13 GND.n9 0.017
R211 GND.n22 GND.n18 0.011
R212 GND.n27 GND.n26 0.011
R213 GND.n71 GND.n67 0.011
R214 s3.n2 s3.t0 120.552
R215 s3.n1 s3.t1 98.438
R216 s3 s3.n2 7.84
R217 s3 s3.n1 3.68
R218 s3.n1 s3.n0 3.084
R219 s3.n0 s3 0.374
R220 VDD.n72 VDD.t7 38.206
R221 VDD.n135 VDD.t37 36.141
R222 VDD.n302 VDD.t18 32.01
R223 VDD.n80 VDD.t5 32.01
R224 VDD.n127 VDD.t4 29.945
R225 VDD.n60 VDD.t17 29.945
R226 VDD.n34 VDD.t32 24.782
R227 VDD.n181 VDD.t22 24.782
R228 VDD.n228 VDD.t2 24.782
R229 VDD.n284 VDD.t0 24.782
R230 VDD.n119 VDD.t10 23.75
R231 VDD.n52 VDD.t8 23.75
R232 VDD.n301 VDD.t19 22.029
R233 VDD.n118 VDD.t11 22.029
R234 VDD.n101 VDD.t27 22.029
R235 VDD.n84 VDD.t6 22.029
R236 VDD.n51 VDD.t9 22.029
R237 VDD.n42 VDD.t33 22.029
R238 VDD.n21 VDD.t29 22.029
R239 VDD.n8 VDD.t31 22.029
R240 VDD.n148 VDD.t25 22.029
R241 VDD.n189 VDD.t23 22.029
R242 VDD.n202 VDD.t39 22.029
R243 VDD.n215 VDD.t36 22.029
R244 VDD.n236 VDD.t3 22.029
R245 VDD.n249 VDD.t21 22.029
R246 VDD.n266 VDD.t13 22.029
R247 VDD.n139 VDD.t16 19.7
R248 VDD.n139 VDD.t1 19.7
R249 VDD.n97 VDD.t26 18.586
R250 VDD.n26 VDD.t28 18.586
R251 VDD.n144 VDD.t24 18.586
R252 VDD.n173 VDD.t34 18.586
R253 VDD.n220 VDD.t35 18.586
R254 VDD.n245 VDD.t20 18.586
R255 VDD.n275 VDD.t15 18.586
R256 VDD.n4 VDD.t30 12.391
R257 VDD.n165 VDD.t14 12.391
R258 VDD.n198 VDD.t38 12.391
R259 VDD.n267 VDD.t12 12.391
R260 VDD.n74 VDD.n71 11.52
R261 VDD.n28 VDD.n25 11.52
R262 VDD.n175 VDD.n172 11.52
R263 VDD.n222 VDD.n219 11.52
R264 VDD.n277 VDD.n274 11.52
R265 VDD.n142 VDD.n141 8.855
R266 VDD.n196 VDD.n195 8.855
R267 VDD.n243 VDD.n242 8.855
R268 VDD.n247 VDD.n246 8.855
R269 VDD.n246 VDD.n245 8.855
R270 VDD.n252 VDD.n251 8.855
R271 VDD.n251 VDD.n250 8.855
R272 VDD.n256 VDD.n255 8.855
R273 VDD.n255 VDD.n254 8.855
R274 VDD.n260 VDD.n259 8.855
R275 VDD.n259 VDD.n258 8.855
R276 VDD.n264 VDD.n263 8.855
R277 VDD.n263 VDD.n262 8.855
R278 VDD.n269 VDD.n268 8.855
R279 VDD.n268 VDD.n267 8.855
R280 VDD.n274 VDD.n273 8.855
R281 VDD.n273 VDD.n272 8.855
R282 VDD.n277 VDD.n276 8.855
R283 VDD.n276 VDD.n275 8.855
R284 VDD.n281 VDD.n280 8.855
R285 VDD.n280 VDD.n279 8.855
R286 VDD.n286 VDD.n285 8.855
R287 VDD.n285 VDD.n284 8.855
R288 VDD.n290 VDD.n289 8.855
R289 VDD.n200 VDD.n199 8.855
R290 VDD.n199 VDD.n198 8.855
R291 VDD.n205 VDD.n204 8.855
R292 VDD.n204 VDD.n203 8.855
R293 VDD.n209 VDD.n208 8.855
R294 VDD.n208 VDD.n207 8.855
R295 VDD.n213 VDD.n212 8.855
R296 VDD.n212 VDD.n211 8.855
R297 VDD.n219 VDD.n218 8.855
R298 VDD.n218 VDD.n217 8.855
R299 VDD.n222 VDD.n221 8.855
R300 VDD.n221 VDD.n220 8.855
R301 VDD.n226 VDD.n225 8.855
R302 VDD.n225 VDD.n224 8.855
R303 VDD.n230 VDD.n229 8.855
R304 VDD.n229 VDD.n228 8.855
R305 VDD.n234 VDD.n233 8.855
R306 VDD.n146 VDD.n145 8.855
R307 VDD.n145 VDD.n144 8.855
R308 VDD.n151 VDD.n150 8.855
R309 VDD.n150 VDD.n149 8.855
R310 VDD.n155 VDD.n154 8.855
R311 VDD.n154 VDD.n153 8.855
R312 VDD.n159 VDD.n158 8.855
R313 VDD.n158 VDD.n157 8.855
R314 VDD.n163 VDD.n162 8.855
R315 VDD.n162 VDD.n161 8.855
R316 VDD.n167 VDD.n166 8.855
R317 VDD.n166 VDD.n165 8.855
R318 VDD.n172 VDD.n171 8.855
R319 VDD.n171 VDD.n170 8.855
R320 VDD.n175 VDD.n174 8.855
R321 VDD.n174 VDD.n173 8.855
R322 VDD.n179 VDD.n178 8.855
R323 VDD.n178 VDD.n177 8.855
R324 VDD.n183 VDD.n182 8.855
R325 VDD.n182 VDD.n181 8.855
R326 VDD.n187 VDD.n186 8.855
R327 VDD.n2 VDD.n1 8.855
R328 VDD.n6 VDD.n5 8.855
R329 VDD.n5 VDD.n4 8.855
R330 VDD.n11 VDD.n10 8.855
R331 VDD.n10 VDD.n9 8.855
R332 VDD.n15 VDD.n14 8.855
R333 VDD.n14 VDD.n13 8.855
R334 VDD.n19 VDD.n18 8.855
R335 VDD.n18 VDD.n17 8.855
R336 VDD.n25 VDD.n24 8.855
R337 VDD.n24 VDD.n23 8.855
R338 VDD.n28 VDD.n27 8.855
R339 VDD.n27 VDD.n26 8.855
R340 VDD.n32 VDD.n31 8.855
R341 VDD.n31 VDD.n30 8.855
R342 VDD.n36 VDD.n35 8.855
R343 VDD.n35 VDD.n34 8.855
R344 VDD.n40 VDD.n39 8.855
R345 VDD.n49 VDD.n48 8.855
R346 VDD.n54 VDD.n53 8.855
R347 VDD.n53 VDD.n52 8.855
R348 VDD.n58 VDD.n57 8.855
R349 VDD.n57 VDD.n56 8.855
R350 VDD.n62 VDD.n61 8.855
R351 VDD.n61 VDD.n60 8.855
R352 VDD.n66 VDD.n65 8.855
R353 VDD.n65 VDD.n64 8.855
R354 VDD.n71 VDD.n70 8.855
R355 VDD.n70 VDD.n69 8.855
R356 VDD.n74 VDD.n73 8.855
R357 VDD.n73 VDD.n72 8.855
R358 VDD.n78 VDD.n77 8.855
R359 VDD.n77 VDD.n76 8.855
R360 VDD.n82 VDD.n81 8.855
R361 VDD.n81 VDD.n80 8.855
R362 VDD.n87 VDD.n86 8.855
R363 VDD.n95 VDD.n94 8.855
R364 VDD.n99 VDD.n98 8.855
R365 VDD.n98 VDD.n97 8.855
R366 VDD.n104 VDD.n103 8.855
R367 VDD.n103 VDD.n102 8.855
R368 VDD.n108 VDD.n107 8.855
R369 VDD.n107 VDD.n106 8.855
R370 VDD.n112 VDD.n111 8.855
R371 VDD.n111 VDD.n110 8.855
R372 VDD.n116 VDD.n115 8.855
R373 VDD.n115 VDD.n114 8.855
R374 VDD.n121 VDD.n120 8.855
R375 VDD.n120 VDD.n119 8.855
R376 VDD.n125 VDD.n124 8.855
R377 VDD.n124 VDD.n123 8.855
R378 VDD.n129 VDD.n128 8.855
R379 VDD.n128 VDD.n127 8.855
R380 VDD.n133 VDD.n132 8.855
R381 VDD.n132 VDD.n131 8.855
R382 VDD.n137 VDD.n136 8.855
R383 VDD.n136 VDD.n135 8.855
R384 VDD.n312 VDD.n311 8.855
R385 VDD.n311 VDD.n310 8.855
R386 VDD.n308 VDD.n307 8.855
R387 VDD.n307 VDD.n306 8.855
R388 VDD.n304 VDD.n303 8.855
R389 VDD.n303 VDD.n302 8.855
R390 VDD.n299 VDD.n298 8.855
R391 VDD.n294 VDD.n293 4.91
R392 VDD.n293 VDD.n292 4.65
R393 VDD.n244 VDD.n243 4.65
R394 VDD.n248 VDD.n247 4.65
R395 VDD.n253 VDD.n252 4.65
R396 VDD.n257 VDD.n256 4.65
R397 VDD.n261 VDD.n260 4.65
R398 VDD.n265 VDD.n264 4.65
R399 VDD.n270 VDD.n269 4.65
R400 VDD.n274 VDD.n271 4.65
R401 VDD.n278 VDD.n277 4.65
R402 VDD.n282 VDD.n281 4.65
R403 VDD.n287 VDD.n286 4.65
R404 VDD.n291 VDD.n290 4.65
R405 VDD.n240 VDD.n239 4.65
R406 VDD.n238 VDD.n237 4.65
R407 VDD.n197 VDD.n196 4.65
R408 VDD.n201 VDD.n200 4.65
R409 VDD.n206 VDD.n205 4.65
R410 VDD.n210 VDD.n209 4.65
R411 VDD.n214 VDD.n213 4.65
R412 VDD.n219 VDD.n216 4.65
R413 VDD.n223 VDD.n222 4.65
R414 VDD.n227 VDD.n226 4.65
R415 VDD.n231 VDD.n230 4.65
R416 VDD.n235 VDD.n234 4.65
R417 VDD.n193 VDD.n192 4.65
R418 VDD.n191 VDD.n190 4.65
R419 VDD.n147 VDD.n146 4.65
R420 VDD.n152 VDD.n151 4.65
R421 VDD.n156 VDD.n155 4.65
R422 VDD.n160 VDD.n159 4.65
R423 VDD.n164 VDD.n163 4.65
R424 VDD.n168 VDD.n167 4.65
R425 VDD.n172 VDD.n169 4.65
R426 VDD.n176 VDD.n175 4.65
R427 VDD.n180 VDD.n179 4.65
R428 VDD.n184 VDD.n183 4.65
R429 VDD.n188 VDD.n187 4.65
R430 VDD.n7 VDD.n6 4.65
R431 VDD.n12 VDD.n11 4.65
R432 VDD.n16 VDD.n15 4.65
R433 VDD.n20 VDD.n19 4.65
R434 VDD.n25 VDD.n22 4.65
R435 VDD.n29 VDD.n28 4.65
R436 VDD.n33 VDD.n32 4.65
R437 VDD.n37 VDD.n36 4.65
R438 VDD.n41 VDD.n40 4.65
R439 VDD.n44 VDD.n43 4.65
R440 VDD.n46 VDD.n45 4.65
R441 VDD.n50 VDD.n49 4.65
R442 VDD.n55 VDD.n54 4.65
R443 VDD.n59 VDD.n58 4.65
R444 VDD.n63 VDD.n62 4.65
R445 VDD.n67 VDD.n66 4.65
R446 VDD.n71 VDD.n68 4.65
R447 VDD.n75 VDD.n74 4.65
R448 VDD.n79 VDD.n78 4.65
R449 VDD.n83 VDD.n82 4.65
R450 VDD.n88 VDD.n87 4.65
R451 VDD.n90 VDD.n89 4.65
R452 VDD.n92 VDD.n91 4.65
R453 VDD.n96 VDD.n95 4.65
R454 VDD.n100 VDD.n99 4.65
R455 VDD.n105 VDD.n104 4.65
R456 VDD.n109 VDD.n108 4.65
R457 VDD.n113 VDD.n112 4.65
R458 VDD.n117 VDD.n116 4.65
R459 VDD.n122 VDD.n121 4.65
R460 VDD.n126 VDD.n125 4.65
R461 VDD.n130 VDD.n129 4.65
R462 VDD.n134 VDD.n133 4.65
R463 VDD.n138 VDD.n137 4.65
R464 VDD.n313 VDD.n312 4.65
R465 VDD.n309 VDD.n308 4.65
R466 VDD.n305 VDD.n304 4.65
R467 VDD.n300 VDD.n299 4.65
R468 VDD.n296 VDD.n295 4.65
R469 VDD.n1 VDD.n0 4.288
R470 VDD.n48 VDD.n47 4.288
R471 VDD.n94 VDD.n93 4.288
R472 VDD.n141 VDD.n140 4.288
R473 VDD.n195 VDD.n194 4.288
R474 VDD.n242 VDD.n241 4.288
R475 VDD.n289 VDD.n288 4.288
R476 VDD.n233 VDD.n232 4.288
R477 VDD.n186 VDD.n185 4.288
R478 VDD.n39 VDD.n38 4.288
R479 VDD.n86 VDD.n85 4.288
R480 VDD.n298 VDD.n297 4.288
R481 VDD.n3 VDD.n2 2.562
R482 VDD.n143 VDD.n142 2.562
R483 VDD.n283 VDD.n139 2.329
R484 VDD.n7 VDD.n3 1.145
R485 VDD.n147 VDD.n143 1.145
R486 VDD.n240 VDD.n238 0.777
R487 VDD.n193 VDD.n191 0.525
R488 VDD.n46 VDD.n44 0.525
R489 VDD.n92 VDD.n90 0.507
R490 VDD.n296 VDD.n294 0.135
R491 VDD.n156 VDD.n152 0.09
R492 VDD.n160 VDD.n156 0.09
R493 VDD.n164 VDD.n160 0.09
R494 VDD.n168 VDD.n164 0.09
R495 VDD.n169 VDD.n168 0.09
R496 VDD.n180 VDD.n176 0.09
R497 VDD.n184 VDD.n180 0.09
R498 VDD.n188 VDD.n184 0.09
R499 VDD.n197 VDD.n193 0.09
R500 VDD.n201 VDD.n197 0.09
R501 VDD.n210 VDD.n206 0.09
R502 VDD.n214 VDD.n210 0.09
R503 VDD.n216 VDD.n214 0.09
R504 VDD.n227 VDD.n223 0.09
R505 VDD.n231 VDD.n227 0.09
R506 VDD.n235 VDD.n231 0.09
R507 VDD.n244 VDD.n240 0.09
R508 VDD.n248 VDD.n244 0.09
R509 VDD.n257 VDD.n253 0.09
R510 VDD.n261 VDD.n257 0.09
R511 VDD.n265 VDD.n261 0.09
R512 VDD.n271 VDD.n270 0.09
R513 VDD.n282 VDD.n278 0.09
R514 VDD.n291 VDD.n287 0.09
R515 VDD.n293 VDD.n291 0.09
R516 VDD.n16 VDD.n12 0.09
R517 VDD.n20 VDD.n16 0.09
R518 VDD.n22 VDD.n20 0.09
R519 VDD.n33 VDD.n29 0.09
R520 VDD.n37 VDD.n33 0.09
R521 VDD.n41 VDD.n37 0.09
R522 VDD.n50 VDD.n46 0.09
R523 VDD.n59 VDD.n55 0.09
R524 VDD.n63 VDD.n59 0.09
R525 VDD.n67 VDD.n63 0.09
R526 VDD.n68 VDD.n67 0.09
R527 VDD.n79 VDD.n75 0.09
R528 VDD.n83 VDD.n79 0.09
R529 VDD.n90 VDD.n88 0.09
R530 VDD.n96 VDD.n92 0.09
R531 VDD.n100 VDD.n96 0.09
R532 VDD.n109 VDD.n105 0.09
R533 VDD.n113 VDD.n109 0.09
R534 VDD.n117 VDD.n113 0.09
R535 VDD.n126 VDD.n122 0.09
R536 VDD.n130 VDD.n126 0.09
R537 VDD.n134 VDD.n130 0.09
R538 VDD.n138 VDD.n134 0.09
R539 VDD.n313 VDD.n309 0.09
R540 VDD.n309 VDD.n305 0.09
R541 VDD.n300 VDD.n296 0.09
R542 VDD.n202 VDD.n201 0.078
R543 VDD.n270 VDD.n266 0.078
R544 VDD.n8 VDD.n7 0.078
R545 VDD.n249 VDD.n248 0.071
R546 VDD.n101 VDD.n100 0.071
R547 VDD.n148 VDD.n147 0.07
R548 VDD.n176 CMOS_3in_OR_0/VDD 0.065
R549 VDD.n223 CMOS_AND_1/VDD 0.065
R550 VDD.n278 CMOS_3in_AND_0/VDD 0.065
R551 VDD.n29 VDD 0.065
R552 VDD.n55 VDD.n51 0.065
R553 VDD.n75 CMOS_XOR_0/VDD 0.065
R554 VDD.n122 VDD.n118 0.065
R555 CMOS_XNOR_0/VDD VDD.n313 0.065
R556 VDD.n287 VDD.n283 0.063
R557 VDD.n191 VDD.n189 0.056
R558 VDD.n238 VDD.n236 0.056
R559 VDD.n44 VDD.n42 0.056
R560 VDD.n84 VDD.n83 0.055
R561 VDD.n305 VDD.n301 0.055
R562 VDD.n88 VDD.n84 0.035
R563 VDD.n301 VDD.n300 0.035
R564 VDD.n189 VDD.n188 0.033
R565 VDD.n236 VDD.n235 0.033
R566 VDD.n42 VDD.n41 0.033
R567 VDD.n294 VDD 0.027
R568 VDD.n283 VDD.n282 0.026
R569 VDD.n169 CMOS_3in_OR_0/VDD 0.025
R570 VDD.n271 CMOS_3in_AND_0/VDD 0.025
R571 VDD.n51 VDD.n50 0.025
R572 VDD.n68 CMOS_XOR_0/VDD 0.025
R573 VDD.n118 VDD.n117 0.025
R574 CMOS_XNOR_0/VDD VDD.n138 0.025
R575 VDD.n152 VDD.n148 0.02
R576 VDD.n253 VDD.n249 0.018
R577 VDD.n105 VDD.n101 0.018
R578 VDD.n216 VDD.n215 0.017
R579 VDD.n22 VDD.n21 0.017
R580 VDD.n206 VDD.n202 0.011
R581 VDD.n266 VDD.n265 0.011
R582 VDD.n12 VDD.n8 0.011
R583 VDD.n215 CMOS_AND_1/VDD 0.007
R584 VDD.n21 VDD 0.007
R585 x3.t0 x3.t2 924.95
R586 CMOS_XOR_0/B x3.t0 633.02
R587 x3.n0 x3.t3 570.366
R588 x3.n0 x3.t1 570.366
R589 x3.n1 x3 158.792
R590 x3 x3.n0 78.72
R591 CMOS_XOR_0/B x3.n1 42.894
R592 x3.n1 x3 0.157
R593 x1.n1 x1.t1 993.097
R594 x1.n0 x1.t0 579.86
R595 x1.n0 x1.t3 547.727
R596 x1.n1 x1.t2 356.59
R597 x1.n2 CMOS_XNOR_0/A 318.92
R598 CMOS_XNOR_0/A x1.n1 78.72
R599 x1.n3 x1.n2 20.984
R600 x1.n3 x1.n0 8.764
R601 x1 x1.n3 2.72
R602 x1.n2 x1 1.597
R603 x3_bar.n3 x3_bar.t2 616.084
R604 x3_bar.n0 x3_bar.t1 579.86
R605 x3_bar.n0 x3_bar.t0 547.727
R606 x3_bar.n3 x3_bar.t3 528.72
R607 x3_bar.n3 x3_bar.n2 12.411
R608 x3_bar.n2 x3_bar.n1 11.74
R609 x3_bar.n1 x3_bar.n0 8.764
R610 CMOS_XOR_0/B_bar x3_bar.n3 3.68
R611 x3_bar.n1 x3_bar 2.72
R612 x3_bar.n2 x3_bar 2.167
R613 x0.t2 x0.t3 1221.07
R614 x0.t0 x0.t1 924.95
R615 CMOS_XNOR_0/B x0.t0 633.02
R616 CMOS_XNOR_0/B x0.n0 535.88
R617 x0.n0 x0 428.025
R618 x0 x0.t2 392.02
R619 x0.n0 x0 0.152
R620 x1_bar.t0 x1_bar.t1 1345.61
R621 x1_bar x1_bar.t0 392.02
R622 x2_bar.t3 x2_bar.t2 1345.61
R623 x2_bar.t0 x2_bar.t1 1221.07
R624 x2_bar.n0 x2_bar.t0 630.3
R625 CMOS_XOR_0/A_bar x2_bar.t3 392.02
R626 CMOS_XOR_0/A_bar x2_bar.n1 44.231
R627 x2_bar.n1 x2_bar.n0 41.121
R628 x2_bar.n1 x2_bar 2.762
R629 x2_bar.n0 x2_bar 2.72
R630 CMOS_3in_OR_0/C.t3 CMOS_3in_OR_0/C.t2 1221.07
R631 CMOS_3in_OR_0/C CMOS_3in_OR_0/C.n0 787.238
R632 CMOS_3in_OR_0/C CMOS_3in_OR_0/C.t3 633.02
R633 CMOS_3in_AND_0/OUT CMOS_3in_OR_0/C.t1 117.958
R634 CMOS_3in_OR_0/C.n0 CMOS_3in_AND_0/OUT 91.717
R635 CMOS_3in_OR_0/C.n0 CMOS_3in_OR_0/C.t0 45.156
R636 x2.n0 x2.t1 993.097
R637 x2.n0 x2.t0 356.59
R638 x2.n1 x2 16.254
R639 x2.n1 x2.n0 8.764
R640 x2 x2.n1 2.72
R641 x0_bar.n0 x0_bar.t0 683.32
R642 x0_bar.n0 x0_bar.t1 528.72
R643 x0_bar x0_bar.n0 3.68
C0 CMOS_AND_0/A a_1380_n1689# 0.01fF
C1 x2 CMOS_AND_1/A 0.07fF
C2 CMOS_AND_0/AND CMOS_3in_OR_0/C 0.06fF
C3 x0 x1 0.21fF
C4 a_1380_n1689# x3 0.02fF
C5 x1 a_1735_499# 0.00fF
C6 a_n28_n779# a_27_n111# 0.00fF
C7 x2_bar x2 4.74fF
C8 x3_bar CMOS_AND_0/AND 0.00fF
C9 a_n328_n1689# a_27_n111# 0.01fF
C10 x1_bar a_n178_n779# 0.00fF
C11 x0 a_177_499# 0.02fF
C12 VDD a_27_n111# 1.04fF
C13 a_2442_n779# CMOS_AND_0/A 0.01fF
C14 CMOS_AND_0/AND s3 0.04fF
C15 x1_bar CMOS_AND_0/A 0.00fF
C16 x1 a_177_499# 0.00fF
C17 a_1380_n1689# CMOS_3in_OR_0/C 0.10fF
C18 x1_bar x3 0.04fF
C19 a_1735_n111# x1 0.01fF
C20 a_27_n111# CMOS_AND_1/A 0.08fF
C21 a_1435_n111# x1 0.01fF
C22 CMOS_AND_0/A CMOS_AND_1/AND 0.02fF
C23 a_n328_n1689# a_n178_n779# 0.01fF
C24 a_2442_n779# a_2592_499# 0.01fF
C25 x3 CMOS_AND_1/AND 0.00fF
C26 VDD a_n178_n779# 0.01fF
C27 a_1380_n1689# x3_bar 0.05fF
C28 x2_bar a_27_n111# 0.05fF
C29 a_n28_n779# x3 0.00fF
C30 a_1380_n779# x1 0.01fF
C31 VDD a_1435_499# 0.06fF
C32 x1_bar a_n123_499# 0.01fF
C33 VDD CMOS_AND_0/A 1.03fF
C34 a_2442_n779# CMOS_3in_OR_0/C 0.05fF
C35 a_n328_n1689# x3 0.09fF
C36 a_2592_n111# CMOS_AND_0/A 0.01fF
C37 a_1380_n1689# s3 0.00fF
C38 VDD x3 1.54fF
C39 x1_bar x0_bar 0.13fF
C40 x1_bar CMOS_3in_OR_0/C 0.00fF
C41 a_1735_499# CMOS_AND_0/AND 0.00fF
C42 CMOS_AND_1/A a_1435_499# 0.01fF
C43 CMOS_AND_0/A CMOS_AND_1/A 0.05fF
C44 x1 CMOS_AND_0/AND 0.06fF
C45 a_2442_n779# x3_bar 0.00fF
C46 a_2592_n1689# CMOS_AND_0/AND 0.00fF
C47 a_n123_n111# x1_bar 0.01fF
C48 CMOS_3in_OR_0/C CMOS_AND_1/AND 0.10fF
C49 x3 CMOS_AND_1/A 0.03fF
C50 x2_bar a_n178_n779# 0.01fF
C51 VDD a_2592_499# 0.78fF
C52 x1_bar x3_bar 0.09fF
C53 a_2592_n111# a_2592_499# 0.01fF
C54 a_n28_n779# x0_bar 0.00fF
C55 a_n28_n779# CMOS_3in_OR_0/C 0.00fF
C56 x2_bar a_1435_499# 0.00fF
C57 VDD a_n123_499# 0.05fF
C58 a_2442_n779# s3 0.06fF
C59 a_n328_n1689# CMOS_3in_OR_0/C 0.05fF
C60 a_n328_n1689# x0_bar 0.01fF
C61 x2_bar CMOS_AND_0/A 0.14fF
C62 x2 a_27_n111# 0.05fF
C63 VDD x0_bar 0.24fF
C64 VDD CMOS_3in_OR_0/C 2.11fF
C65 x2_bar x3 2.37fF
C66 x3_bar CMOS_AND_1/AND 0.01fF
C67 x0 a_1380_n1689# 0.00fF
C68 a_n28_n779# x3_bar 0.00fF
C69 a_1735_n111# CMOS_AND_0/AND 0.00fF
C70 a_1435_n111# CMOS_AND_0/AND 0.00fF
C71 a_n123_n111# a_n328_n1689# 0.00fF
C72 a_1380_n1689# a_1735_499# 0.00fF
C73 a_177_n111# x1_bar 0.01fF
C74 a_n123_499# CMOS_AND_1/A 0.00fF
C75 a_n123_n111# VDD 0.01fF
C76 a_n328_n1689# x3_bar 0.11fF
C77 s3 CMOS_AND_1/AND 0.01fF
C78 x0_bar CMOS_AND_1/A 0.00fF
C79 x1 a_1380_n1689# 0.03fF
C80 CMOS_3in_OR_0/C CMOS_AND_1/A 0.02fF
C81 a_1380_n1689# a_2592_n1689# 0.00fF
C82 VDD x3_bar 1.07fF
C83 x2_bar a_2592_499# 0.00fF
C84 a_2592_n111# x3_bar 0.00fF
C85 x2_bar a_n123_499# 0.00fF
C86 x2 a_n178_n779# 0.00fF
C87 a_n123_n111# CMOS_AND_1/A 0.00fF
C88 VDD s3 0.37fF
C89 x2_bar x0_bar 0.04fF
C90 x2_bar CMOS_3in_OR_0/C 0.03fF
C91 x3_bar CMOS_AND_1/A 0.12fF
C92 a_177_n111# a_n328_n1689# 0.00fF
C93 x2 CMOS_AND_0/A 0.09fF
C94 x0 x1_bar 0.20fF
C95 a_177_n111# VDD 0.01fF
C96 x2 x3 0.20fF
C97 a_1735_n111# a_1380_n1689# 0.00fF
C98 a_1435_n111# a_1380_n1689# 0.00fF
C99 a_2442_n779# x1 0.04fF
C100 x2_bar a_n123_n111# 0.00fF
C101 a_2442_n779# a_2592_n1689# 0.02fF
C102 x2_bar x3_bar 0.27fF
C103 x1_bar x1 2.81fF
C104 a_177_n111# CMOS_AND_1/A 0.00fF
C105 a_n28_n779# x0 0.00fF
C106 a_1380_n779# a_1380_n1689# 0.01fF
C107 x2 a_2592_499# 0.00fF
C108 x2_bar s3 0.00fF
C109 x1 CMOS_AND_1/AND 0.03fF
C110 a_2592_n1689# CMOS_AND_1/AND 0.01fF
C111 x0 a_n328_n1689# 0.04fF
C112 x2 a_n123_499# 0.00fF
C113 a_n28_n779# x1 0.01fF
C114 x1_bar a_177_499# 0.01fF
C115 x0 VDD 1.12fF
C116 x2_bar a_177_n111# 0.00fF
C117 a_2742_n1689# a_2592_499# 0.00fF
C118 x2 x0_bar 0.04fF
C119 x2 CMOS_3in_OR_0/C 0.03fF
C120 a_27_n111# a_1435_499# 0.00fF
C121 VDD a_1735_499# 0.06fF
C122 a_n328_n1689# x1 0.04fF
C123 CMOS_AND_0/A a_27_n111# 0.04fF
C124 x1 VDD 0.58fF
C125 a_2592_n111# x1 0.01fF
C126 VDD a_2592_n1689# 0.06fF
C127 a_1380_n1689# CMOS_AND_0/AND 0.00fF
C128 a_27_n111# x3 0.17fF
C129 a_2742_n1689# CMOS_3in_OR_0/C 0.01fF
C130 x0 CMOS_AND_1/A 0.01fF
C131 a_n123_n111# x2 0.00fF
C132 a_1380_n779# a_2442_n779# 0.00fF
C133 a_1735_499# CMOS_AND_1/A 0.00fF
C134 x2 x3_bar 0.60fF
C135 a_n328_n1689# a_177_499# 0.00fF
C136 x1 CMOS_AND_1/A 0.03fF
C137 VDD a_177_499# 0.05fF
C138 x2_bar x0 0.15fF
C139 x2_bar a_1735_499# 0.01fF
C140 a_1735_n111# VDD 0.01fF
C141 a_1380_n779# CMOS_AND_1/AND 0.00fF
C142 a_1435_n111# VDD 0.01fF
C143 a_n123_499# a_27_n111# 0.02fF
C144 a_2442_n779# CMOS_AND_0/AND 0.12fF
C145 CMOS_AND_0/A a_1435_499# 0.02fF
C146 x2_bar x1 0.86fF
C147 a_n178_n779# x3 0.00fF
C148 a_177_n111# x2 0.00fF
C149 x0_bar a_27_n111# 0.14fF
C150 a_27_n111# CMOS_3in_OR_0/C 0.01fF
C151 s3 a_2742_n1689# 0.00fF
C152 x3 a_1435_499# 0.01fF
C153 a_177_499# CMOS_AND_1/A 0.00fF
C154 a_1380_n779# a_n328_n1689# 0.00fF
C155 CMOS_AND_0/A x3 0.35fF
C156 a_1735_n111# CMOS_AND_1/A 0.00fF
C157 a_1380_n779# VDD 0.00fF
C158 a_1435_n111# CMOS_AND_1/A 0.00fF
C159 a_n123_n111# a_27_n111# 0.01fF
C160 CMOS_AND_0/AND CMOS_AND_1/AND 0.04fF
C161 x2_bar a_177_499# 0.00fF
C162 x3_bar a_27_n111# 0.25fF
C163 a_2592_499# a_1435_499# 0.00fF
C164 x2_bar a_1735_n111# 0.01fF
C165 x2_bar a_1435_n111# 0.00fF
C166 a_1380_n779# CMOS_AND_1/A 0.01fF
C167 CMOS_AND_0/A a_2592_499# 0.09fF
C168 x0_bar a_n178_n779# 0.00fF
C169 a_n178_n779# CMOS_3in_OR_0/C 0.00fF
C170 x2 x0 0.10fF
C171 x3 a_2592_499# 0.01fF
C172 a_2442_n779# a_1380_n1689# 0.01fF
C173 VDD CMOS_AND_0/AND 0.49fF
C174 a_2592_n111# CMOS_AND_0/AND 0.01fF
C175 a_n123_499# x3 0.01fF
C176 CMOS_AND_0/A x0_bar 0.00fF
C177 CMOS_AND_0/A CMOS_3in_OR_0/C 0.00fF
C178 x2 x1 0.12fF
C179 x2_bar a_1380_n779# 0.00fF
C180 a_177_n111# a_27_n111# 0.01fF
C181 x0_bar x3 0.05fF
C182 x3 CMOS_3in_OR_0/C 0.00fF
C183 x3_bar a_n178_n779# 0.00fF
C184 CMOS_AND_0/AND CMOS_AND_1/A 0.01fF
C185 a_1380_n1689# CMOS_AND_1/AND 0.07fF
C186 x3_bar a_1435_499# 0.01fF
C187 a_n28_n779# a_1380_n1689# 0.00fF
C188 CMOS_AND_0/A x3_bar 0.15fF
C189 a_n123_n111# x3 0.00fF
C190 x2 a_177_499# 0.00fF
C191 x3_bar x3 3.29fF
C192 CMOS_3in_OR_0/C a_2592_499# 0.00fF
C193 a_n328_n1689# a_1380_n1689# 0.00fF
C194 x2_bar CMOS_AND_0/AND 0.00fF
C195 x2 a_1735_n111# 0.00fF
C196 a_1435_n111# x2 0.00fF
C197 VDD a_1380_n1689# 0.75fF
C198 a_n123_499# x0_bar 0.01fF
C199 x0 a_27_n111# 0.33fF
C200 a_177_n111# CMOS_AND_0/A 0.00fF
C201 a_2442_n779# CMOS_AND_1/AND 0.10fF
C202 x3_bar a_2592_499# 0.00fF
C203 x1 a_27_n111# 0.05fF
C204 a_1380_n779# x2 0.00fF