* NGSPICE file created from CMOS_PRESENT80_R1_flat.ext - technology: sky130A

.subckt CMOS_PRESENT80_R1_flat GND k0 k0_bar x0 x0_bar x1_bar x1 k1_bar k1 k2 k2_bar
+ x2 x2_bar x3_bar x3 k3_bar k3 s3 s2 s1 s0 VDD
X0 a_n2290_n2118# CMOS_sbox_0/CMOS_s1_0/CMOS_XNOR_0/A.t4 GND.t160 GND.t159 sky130_fd_pr__nfet_01v8 ad=9e+11p pd=4.2e+06u as=0p ps=0u w=1.5e+06u l=150000u
X1 a_n787_n9098# CMOS_sbox_0/CMOS_s1_0/CMOS_XOR_0/B_bar.t2 GND.t39 GND.t38 sky130_fd_pr__nfet_01v8 ad=9e+11p pd=4.2e+06u as=0p ps=0u w=1.5e+06u l=150000u
X2 a_n732_n8430# CMOS_sbox_0/CMOS_s1_0/CMOS_XNOR_0/B.t4 GND.t101 GND.t100 sky130_fd_pr__nfet_01v8 ad=9e+11p pd=4.2e+06u as=0p ps=0u w=1.5e+06u l=150000u
X3 CMOS_sbox_0/CMOS_s1_0/CMOS_XNOR_0/XNOR a_n2140_n2118# GND.t25 GND.t24 sky130_fd_pr__nfet_01v8 ad=9e+11p pd=4.2e+06u as=0p ps=0u w=1.5e+06u l=150000u
X4 a_n4395_n1508# x2_bar.t0 CMOS_sbox_0/CMOS_s1_0/CMOS_XNOR_0/B.t3 VDD.t23 sky130_fd_pr__pfet_01v8 ad=1.8e+12p pd=7.2e+06u as=0p ps=0u w=3e+06u l=150000u
X5 a_275_n2786# CMOS_sbox_0/CMOS_s1_0/CMOS_3in_AND_0/OUT.t2 a_575_n3696# VDD.t57 sky130_fd_pr__pfet_01v8 ad=1.8e+12p pd=7.2e+06u as=1.8e+12p ps=7.2e+06u w=3e+06u l=150000u
X6 CMOS_sbox_0/CMOS_s0_0/CMOS_OR_0/A a_425_1648# GND.t125 GND.t1 sky130_fd_pr__nfet_01v8 ad=9e+11p pd=4.2e+06u as=0p ps=0u w=1.5e+06u l=150000u
X7 a_n2290_370# CMOS_sbox_0/CMOS_s1_0/CMOS_AND_1/B.t4 GND.t80 GND.t79 sky130_fd_pr__nfet_01v8 ad=9e+11p pd=4.2e+06u as=0p ps=0u w=1.5e+06u l=150000u
X8 CMOS_sbox_0/CMOS_s1_0/CMOS_AND_0/AND a_425_n1508# VDD.t143 VDD.t4 sky130_fd_pr__pfet_01v8 ad=1.8e+12p pd=7.2e+06u as=0p ps=0u w=3e+06u l=150000u
X9 a_n432_n2118# CMOS_sbox_0/CMOS_s1_0/CMOS_XOR_0/B_bar.t3 CMOS_sbox_0/CMOS_s1_0/CMOS_AND_0/A GND.t67 sky130_fd_pr__nfet_01v8 ad=9e+11p pd=4.2e+06u as=9e+11p ps=4.2e+06u w=1.5e+06u l=150000u
X10 GND.t41 x0_bar.t0 a_n4395_1038# GND.t40 sky130_fd_pr__nfet_01v8 ad=0p pd=0u as=9e+11p ps=4.2e+06u w=1.5e+06u l=150000u
X11 a_n732_n4664# CMOS_sbox_0/CMOS_s1_0/CMOS_XNOR_0/A_bar.t2 VDD.t169 VDD.t168 sky130_fd_pr__pfet_01v8 ad=1.8e+12p pd=7.2e+06u as=0p ps=0u w=3e+06u l=150000u
X12 a_n4395_1038# k0_bar.t0 CMOS_sbox_0/CMOS_s1_0/CMOS_XNOR_0/A.t2 GND.t59 sky130_fd_pr__nfet_01v8 ad=0p pd=0u as=0p ps=0u w=1.5e+06u l=150000u
X13 CMOS_sbox_0/CMOS_s1_0/CMOS_AND_0/A CMOS_sbox_0/CMOS_s1_0/CMOS_AND_1/B.t5 a_n732_n2118# GND.t137 sky130_fd_pr__nfet_01v8 ad=0p pd=0u as=9e+11p ps=4.2e+06u w=1.5e+06u l=150000u
X14 CMOS_sbox_0/CMOS_s1_0/CMOS_XOR_0/A.t1 x1.t0 a_n4695_n540# VDD.t37 sky130_fd_pr__pfet_01v8 ad=0p pd=0u as=1.8e+12p ps=7.2e+06u w=3e+06u l=150000u
X15 GND.t77 x2_bar.t1 a_n4395_n2118# GND.t76 sky130_fd_pr__nfet_01v8 ad=0p pd=0u as=9e+11p ps=4.2e+06u w=1.5e+06u l=150000u
X16 a_n4695_n540# k1_bar.t0 VDD.t68 VDD.t67 sky130_fd_pr__pfet_01v8 ad=0p pd=0u as=0p ps=0u w=3e+06u l=150000u
X17 CMOS_sbox_0/CMOS_s3_0/CMOS_AND_1/AND a_n787_n10008# GND.t123 GND.t122 sky130_fd_pr__nfet_01v8 ad=9e+11p pd=4.2e+06u as=0p ps=0u w=1.5e+06u l=150000u
X18 CMOS_sbox_0/CMOS_s2_0/CMOS_3in_OR_0/C.t0 a_n2345_n6852# VDD.t41 VDD.t40 sky130_fd_pr__pfet_01v8 ad=0p pd=0u as=0p ps=0u w=3e+06u l=150000u
X19 s2.t1 a_275_n5942# GND.t115 GND.t114 sky130_fd_pr__nfet_01v8 ad=0p pd=0u as=0p ps=0u w=1.5e+06u l=150000u
X20 a_n4395_370# k1_bar.t1 CMOS_sbox_0/CMOS_s1_0/CMOS_XOR_0/A.t2 GND.t59 sky130_fd_pr__nfet_01v8 ad=9e+11p pd=4.2e+06u as=0p ps=0u w=1.5e+06u l=150000u
X21 a_n2140_n8430# CMOS_sbox_0/CMOS_s1_0/CMOS_XOR_0/A.t4 a_n2290_n7820# VDD.t2 sky130_fd_pr__pfet_01v8 ad=1.8e+12p pd=7.2e+06u as=1.8e+12p ps=7.2e+06u w=3e+06u l=150000u
X22 a_n4395_n2118# k2_bar.t0 CMOS_sbox_0/CMOS_s1_0/CMOS_XNOR_0/B.t1 GND.t46 sky130_fd_pr__nfet_01v8 ad=0p pd=0u as=0p ps=0u w=1.5e+06u l=150000u
X23 a_425_n1508# CMOS_sbox_0/CMOS_s1_0/CMOS_XNOR_0/B_bar.t2 VDD.t46 VDD.t8 sky130_fd_pr__pfet_01v8 ad=1.8e+12p pd=7.2e+06u as=0p ps=0u w=3e+06u l=150000u
X24 CMOS_sbox_0/CMOS_s1_0/CMOS_AND_0/AND a_425_n1508# GND.t140 GND.t139 sky130_fd_pr__nfet_01v8 ad=9e+11p pd=4.2e+06u as=0p ps=0u w=1.5e+06u l=150000u
X25 CMOS_sbox_0/CMOS_s1_0/CMOS_AND_1/B.t2 k3.t0 a_n4695_n2786# GND.t65 sky130_fd_pr__nfet_01v8 ad=0p pd=0u as=9e+11p ps=4.2e+06u w=1.5e+06u l=150000u
X26 VDD.t39 CMOS_sbox_0/CMOS_s1_0/CMOS_XNOR_0/A_bar.t3 a_n2495_n3696# VDD.t38 sky130_fd_pr__pfet_01v8 ad=0p pd=0u as=3.6e+12p ps=1.44e+07u w=3e+06u l=150000u
X27 a_n2290_n7820# CMOS_sbox_0/CMOS_s1_0/CMOS_XNOR_0/A_bar.t4 VDD.t15 VDD.t14 sky130_fd_pr__pfet_01v8 ad=0p pd=0u as=0p ps=0u w=3e+06u l=150000u
X28 CMOS_sbox_0/CMOS_s3_0/CMOS_3in_AND_0/OUT.t1 a_n2495_n10008# GND.t64 GND.t63 sky130_fd_pr__nfet_01v8 ad=0p pd=0u as=0p ps=0u w=1.5e+06u l=150000u
X29 a_n732_n5274# CMOS_sbox_0/CMOS_s1_0/CMOS_XOR_0/A.t5 GND.t88 GND.t87 sky130_fd_pr__nfet_01v8 ad=9e+11p pd=4.2e+06u as=0p ps=0u w=1.5e+06u l=150000u
X30 CMOS_sbox_0/CMOS_s0_0/CMOS_AND_0/A CMOS_sbox_0/CMOS_s1_0/CMOS_XNOR_0/A.t5 a_n2290_1648# VDD.t182 sky130_fd_pr__pfet_01v8 ad=1.8e+12p pd=7.2e+06u as=1.8e+12p ps=7.2e+06u w=3e+06u l=150000u
X31 CMOS_sbox_0/CMOS_s3_0/CMOS_XNOR_0/XNOR a_n2140_n8430# VDD.t96 VDD.t95 sky130_fd_pr__pfet_01v8 ad=1.8e+12p pd=7.2e+06u as=0p ps=0u w=3e+06u l=150000u
X32 a_n2290_1648# CMOS_sbox_0/CMOS_s1_0/CMOS_XOR_0/B_bar.t4 VDD.t114 VDD.t113 sky130_fd_pr__pfet_01v8 ad=0p pd=0u as=0p ps=0u w=3e+06u l=150000u
X33 VDD.t170 CMOS_sbox_0/CMOS_s1_0/CMOS_AND_0/A a_425_n1508# VDD.t74 sky130_fd_pr__pfet_01v8 ad=0p pd=0u as=0p ps=0u w=3e+06u l=150000u
X34 a_n4695_n2786# x3.t0 GND.t147 GND.t18 sky130_fd_pr__nfet_01v8 ad=0p pd=0u as=0p ps=0u w=1.5e+06u l=150000u
X35 a_n787_1038# CMOS_sbox_0/CMOS_s1_0/CMOS_XNOR_0/B_bar.t3 a_n787_1648# VDD.t69 sky130_fd_pr__pfet_01v8 ad=1.8e+12p pd=7.2e+06u as=1.8e+12p ps=7.2e+06u w=3e+06u l=150000u
X36 VDD.t71 k3.t1 a_n4395_n3696# VDD.t70 sky130_fd_pr__pfet_01v8 ad=0p pd=0u as=1.8e+12p ps=7.2e+06u w=3e+06u l=150000u
X37 a_n787_1648# CMOS_sbox_0/CMOS_s1_0/CMOS_XOR_0/A.t6 VDD.t167 VDD.t166 sky130_fd_pr__pfet_01v8 ad=0p pd=0u as=0p ps=0u w=3e+06u l=150000u
X38 CMOS_sbox_0/CMOS_s1_0/CMOS_XOR_0/B_bar.t1 CMOS_sbox_0/CMOS_s1_0/CMOS_AND_1/B.t6 GND.t136 GND.t135 sky130_fd_pr__nfet_01v8 ad=0p pd=0u as=0p ps=0u w=1.5e+06u l=150000u
X39 a_275_n5942# CMOS_sbox_0/CMOS_s2_0/CMOS_3in_OR_0/C.t2 a_575_n6852# VDD.t20 sky130_fd_pr__pfet_01v8 ad=1.8e+12p pd=7.2e+06u as=1.8e+12p ps=7.2e+06u w=3e+06u l=150000u
X40 a_n1990_n1508# CMOS_sbox_0/CMOS_s1_0/CMOS_XNOR_0/A_bar.t5 a_n2140_n2118# VDD.t101 sky130_fd_pr__pfet_01v8 ad=1.8e+12p pd=7.2e+06u as=1.8e+12p ps=7.2e+06u w=3e+06u l=150000u
X41 a_n432_n7820# CMOS_sbox_0/CMOS_s1_0/CMOS_XNOR_0/B_bar.t4 CMOS_sbox_0/CMOS_s3_0/CMOS_AND_0/A VDD.t58 sky130_fd_pr__pfet_01v8 ad=1.8e+12p pd=7.2e+06u as=1.8e+12p ps=7.2e+06u w=3e+06u l=150000u
X42 CMOS_sbox_0/CMOS_s0_0/CMOS_OR_1/OR a_n787_1038# GND.t99 GND.t98 sky130_fd_pr__nfet_01v8 ad=9e+11p pd=4.2e+06u as=0p ps=0u w=1.5e+06u l=150000u
X43 a_n2140_n8430# CMOS_sbox_0/CMOS_s1_0/CMOS_XNOR_0/A.t6 a_n2290_n8430# GND.t158 sky130_fd_pr__nfet_01v8 ad=9e+11p pd=4.2e+06u as=9e+11p ps=4.2e+06u w=1.5e+06u l=150000u
X44 a_n2345_n6852# CMOS_sbox_0/CMOS_s1_0/CMOS_XOR_0/B_bar.t5 a_n2045_n5942# GND.t42 sky130_fd_pr__nfet_01v8 ad=9e+11p pd=4.2e+06u as=9e+11p ps=4.2e+06u w=1.5e+06u l=150000u
X45 a_425_n540# CMOS_sbox_0/CMOS_s0_0/CMOS_AND_1/A a_425_370# GND.t81 sky130_fd_pr__nfet_01v8 ad=9e+11p pd=4.2e+06u as=9e+11p ps=4.2e+06u w=1.5e+06u l=150000u
X46 a_n4695_370# x1.t1 GND.t9 GND.t8 sky130_fd_pr__nfet_01v8 ad=9e+11p pd=4.2e+06u as=0p ps=0u w=1.5e+06u l=150000u
X47 a_425_n2118# CMOS_sbox_0/CMOS_s1_0/CMOS_XNOR_0/B_bar.t5 GND.t28 GND.t27 sky130_fd_pr__nfet_01v8 ad=9e+11p pd=4.2e+06u as=0p ps=0u w=1.5e+06u l=150000u
X48 a_n4395_n3696# x3_bar.t0 CMOS_sbox_0/CMOS_s1_0/CMOS_AND_1/B.t0 VDD.t10 sky130_fd_pr__pfet_01v8 ad=0p pd=0u as=0p ps=0u w=3e+06u l=150000u
X49 CMOS_sbox_0/CMOS_s3_0/CMOS_AND_0/A CMOS_sbox_0/CMOS_s1_0/CMOS_XNOR_0/B.t5 a_n732_n7820# VDD.t154 sky130_fd_pr__pfet_01v8 ad=0p pd=0u as=1.8e+12p ps=7.2e+06u w=3e+06u l=150000u
X50 a_n2290_n8430# CMOS_sbox_0/CMOS_s1_0/CMOS_XOR_0/A.t7 GND.t34 GND.t33 sky130_fd_pr__nfet_01v8 ad=0p pd=0u as=0p ps=0u w=1.5e+06u l=150000u
X51 s3.t1 a_275_n9098# GND.t97 GND.t96 sky130_fd_pr__nfet_01v8 ad=0p pd=0u as=0p ps=0u w=1.5e+06u l=150000u
X52 CMOS_sbox_0/CMOS_s3_0/CMOS_XNOR_0/XNOR a_n2140_n8430# GND.t111 GND.t110 sky130_fd_pr__nfet_01v8 ad=9e+11p pd=4.2e+06u as=0p ps=0u w=1.5e+06u l=150000u
X53 a_n1990_1038# CMOS_sbox_0/CMOS_s1_0/CMOS_XOR_0/B_bar.t6 CMOS_sbox_0/CMOS_s0_0/CMOS_AND_0/A GND.t0 sky130_fd_pr__nfet_01v8 ad=9e+11p pd=4.2e+06u as=9e+11p ps=4.2e+06u w=1.5e+06u l=150000u
X54 a_n2140_n540# CMOS_sbox_0/CMOS_s1_0/CMOS_AND_1/B.t7 a_n2290_n540# VDD.t142 sky130_fd_pr__pfet_01v8 ad=1.8e+12p pd=7.2e+06u as=1.8e+12p ps=7.2e+06u w=3e+06u l=150000u
X55 a_425_n1508# CMOS_sbox_0/CMOS_s1_0/CMOS_AND_0/A a_425_n2118# GND.t22 sky130_fd_pr__nfet_01v8 ad=9e+11p pd=4.2e+06u as=0p ps=0u w=1.5e+06u l=150000u
X56 CMOS_sbox_0/CMOS_s0_0/CMOS_OR_0/B a_425_n540# GND.t2 GND.t1 sky130_fd_pr__nfet_01v8 ad=9e+11p pd=4.2e+06u as=0p ps=0u w=1.5e+06u l=150000u
X57 VDD.t141 CMOS_sbox_0/CMOS_s1_0/CMOS_AND_1/B.t8 a_n432_n1508# VDD.t140 sky130_fd_pr__pfet_01v8 ad=0p pd=0u as=1.8e+12p ps=7.2e+06u w=3e+06u l=150000u
X58 a_575_n10008# CMOS_sbox_0/CMOS_s3_0/CMOS_AND_0/AND a_425_n10008# VDD.t54 sky130_fd_pr__pfet_01v8 ad=1.8e+12p pd=7.2e+06u as=1.8e+12p ps=7.2e+06u w=3e+06u l=150000u
X59 a_n2290_n540# CMOS_sbox_0/CMOS_s1_0/CMOS_XNOR_0/A_bar.t6 VDD.t31 VDD.t30 sky130_fd_pr__pfet_01v8 ad=0p pd=0u as=0p ps=0u w=3e+06u l=150000u
X60 VDD.t153 CMOS_sbox_0/CMOS_s1_0/CMOS_XNOR_0/B.t6 a_n1990_n1508# VDD.t152 sky130_fd_pr__pfet_01v8 ad=0p pd=0u as=0p ps=0u w=3e+06u l=150000u
X61 GND.t30 CMOS_sbox_0/CMOS_s1_0/CMOS_3in_AND_0/OUT.t3 a_275_n2786# GND.t29 sky130_fd_pr__nfet_01v8 ad=0p pd=0u as=1.8e+12p ps=8.4e+06u w=1.5e+06u l=150000u
X62 a_n2140_n5274# CMOS_sbox_0/CMOS_s1_0/CMOS_AND_1/B.t9 a_n2290_n4664# VDD.t139 sky130_fd_pr__pfet_01v8 ad=1.8e+12p pd=7.2e+06u as=1.8e+12p ps=7.2e+06u w=3e+06u l=150000u
X63 s0.t0 a_1637_1038# VDD.t66 VDD.t65 sky130_fd_pr__pfet_01v8 ad=0p pd=0u as=0p ps=0u w=3e+06u l=150000u
X64 VDD.t151 CMOS_sbox_0/CMOS_s1_0/CMOS_XNOR_0/B.t7 a_n787_n540# VDD.t150 sky130_fd_pr__pfet_01v8 ad=0p pd=0u as=1.8e+12p ps=7.2e+06u w=3e+06u l=150000u
X65 a_n1990_n2118# CMOS_sbox_0/CMOS_s1_0/CMOS_XNOR_0/B_bar.t6 a_n2140_n2118# GND.t148 sky130_fd_pr__nfet_01v8 ad=9e+11p pd=4.2e+06u as=9e+11p ps=4.2e+06u w=1.5e+06u l=150000u
X66 a_n432_n8430# CMOS_sbox_0/CMOS_s1_0/CMOS_XOR_0/B_bar.t7 CMOS_sbox_0/CMOS_s3_0/CMOS_AND_0/A GND.t89 sky130_fd_pr__nfet_01v8 ad=9e+11p pd=4.2e+06u as=9e+11p ps=4.2e+06u w=1.5e+06u l=150000u
X67 CMOS_sbox_0/CMOS_s3_0/CMOS_AND_0/AND a_425_n7820# VDD.t64 VDD.t63 sky130_fd_pr__pfet_01v8 ad=1.8e+12p pd=7.2e+06u as=0p ps=0u w=3e+06u l=150000u
X68 a_n2345_n6852# CMOS_sbox_0/CMOS_s1_0/CMOS_XNOR_0/B.t8 VDD.t149 VDD.t148 sky130_fd_pr__pfet_01v8 ad=3.6e+12p pd=1.44e+07u as=0p ps=0u w=3e+06u l=150000u
X69 a_n787_n540# CMOS_sbox_0/CMOS_s1_0/CMOS_XOR_0/A_bar.t2 VDD.t89 VDD.t88 sky130_fd_pr__pfet_01v8 ad=0p pd=0u as=0p ps=0u w=3e+06u l=150000u
X70 a_n2495_n10008# CMOS_sbox_0/CMOS_s1_0/CMOS_XNOR_0/A.t7 VDD.t181 VDD.t180 sky130_fd_pr__pfet_01v8 ad=3.6e+12p pd=1.44e+07u as=0p ps=0u w=3e+06u l=150000u
X71 a_n2290_n4664# CMOS_sbox_0/CMOS_s1_0/CMOS_XNOR_0/B_bar.t7 VDD.t29 VDD.t28 sky130_fd_pr__pfet_01v8 ad=0p pd=0u as=0p ps=0u w=3e+06u l=150000u
X72 a_425_n3696# CMOS_sbox_0/CMOS_s1_0/CMOS_AND_1/AND VDD.t62 VDD.t61 sky130_fd_pr__pfet_01v8 ad=1.8e+12p pd=7.2e+06u as=0p ps=0u w=3e+06u l=150000u
X73 CMOS_sbox_0/CMOS_s3_0/CMOS_AND_0/A CMOS_sbox_0/CMOS_s1_0/CMOS_AND_1/B.t10 a_n732_n8430# GND.t134 sky130_fd_pr__nfet_01v8 ad=0p pd=0u as=0p ps=0u w=1.5e+06u l=150000u
X74 a_n787_370# CMOS_sbox_0/CMOS_s1_0/CMOS_XOR_0/A_bar.t3 GND.t120 GND.t6 sky130_fd_pr__nfet_01v8 ad=9e+11p pd=4.2e+06u as=0p ps=0u w=1.5e+06u l=150000u
X75 CMOS_sbox_0/CMOS_s2_0/CMOS_3in_OR_0/C.t1 a_n2345_n6852# GND.t48 GND.t47 sky130_fd_pr__nfet_01v8 ad=0p pd=0u as=0p ps=0u w=1.5e+06u l=150000u
X76 CMOS_sbox_0/CMOS_s2_0/CMOS_XNOR_0/XNOR a_n2140_n5274# VDD.t50 VDD.t49 sky130_fd_pr__pfet_01v8 ad=1.8e+12p pd=7.2e+06u as=0p ps=0u w=3e+06u l=150000u
X77 CMOS_sbox_0/CMOS_s1_0/CMOS_XNOR_0/A.t3 k0.t0 a_n4695_1038# GND.t138 sky130_fd_pr__nfet_01v8 ad=0p pd=0u as=9e+11p ps=4.2e+06u w=1.5e+06u l=150000u
X78 a_n432_n4664# CMOS_sbox_0/CMOS_s1_0/CMOS_XOR_0/A_bar.t4 CMOS_sbox_0/CMOS_s2_0/CMOS_AND_0/A VDD.t42 sky130_fd_pr__pfet_01v8 ad=1.8e+12p pd=7.2e+06u as=1.8e+12p ps=7.2e+06u w=3e+06u l=150000u
X79 a_n4695_1038# x0.t0 GND.t43 GND.t8 sky130_fd_pr__nfet_01v8 ad=0p pd=0u as=0p ps=0u w=1.5e+06u l=150000u
X80 GND.t106 CMOS_sbox_0/CMOS_s1_0/CMOS_XOR_0/A_bar.t5 a_n432_n2118# GND.t105 sky130_fd_pr__nfet_01v8 ad=0p pd=0u as=0p ps=0u w=1.5e+06u l=150000u
X81 a_575_n3696# CMOS_sbox_0/CMOS_s1_0/CMOS_AND_0/AND a_425_n3696# VDD.t17 sky130_fd_pr__pfet_01v8 ad=0p pd=0u as=0p ps=0u w=3e+06u l=150000u
X82 a_425_1648# CMOS_sbox_0/CMOS_s0_0/CMOS_OR_1/OR VDD.t116 VDD.t115 sky130_fd_pr__pfet_01v8 ad=1.8e+12p pd=7.2e+06u as=0p ps=0u w=3e+06u l=150000u
X83 a_1637_1648# CMOS_sbox_0/CMOS_s0_0/CMOS_OR_0/A VDD.t118 VDD.t117 sky130_fd_pr__pfet_01v8 ad=1.8e+12p pd=7.2e+06u as=0p ps=0u w=3e+06u l=150000u
X84 GND.t15 CMOS_sbox_0/CMOS_s1_0/CMOS_XNOR_0/A_bar.t7 a_n1990_n2118# GND.t14 sky130_fd_pr__nfet_01v8 ad=0p pd=0u as=0p ps=0u w=1.5e+06u l=150000u
X85 a_n2140_n5274# CMOS_sbox_0/CMOS_s1_0/CMOS_XNOR_0/B.t9 a_n2290_n5274# GND.t104 sky130_fd_pr__nfet_01v8 ad=9e+11p pd=4.2e+06u as=9e+11p ps=4.2e+06u w=1.5e+06u l=150000u
X86 VDD.t60 CMOS_sbox_0/CMOS_s0_0/CMOS_AND_0/A a_425_1648# VDD.t59 sky130_fd_pr__pfet_01v8 ad=0p pd=0u as=0p ps=0u w=3e+06u l=150000u
X87 a_n2140_n540# CMOS_sbox_0/CMOS_s1_0/CMOS_XNOR_0/A.t8 a_n2290_370# GND.t131 sky130_fd_pr__nfet_01v8 ad=9e+11p pd=4.2e+06u as=0p ps=0u w=1.5e+06u l=150000u
X88 a_n2345_n2786# CMOS_sbox_0/CMOS_s1_0/CMOS_XNOR_0/A_bar.t8 GND.t17 GND.t16 sky130_fd_pr__nfet_01v8 ad=9e+11p pd=4.2e+06u as=0p ps=0u w=1.5e+06u l=150000u
X89 CMOS_sbox_0/CMOS_s3_0/CMOS_AND_0/AND a_425_n7820# GND.t84 GND.t83 sky130_fd_pr__nfet_01v8 ad=9e+11p pd=4.2e+06u as=0p ps=0u w=1.5e+06u l=150000u
X90 a_425_n7820# CMOS_sbox_0/CMOS_s1_0/CMOS_XOR_0/A.t8 VDD.t25 VDD.t24 sky130_fd_pr__pfet_01v8 ad=1.8e+12p pd=7.2e+06u as=0p ps=0u w=3e+06u l=150000u
X91 a_n787_n10008# CMOS_sbox_0/CMOS_s1_0/CMOS_XOR_0/B_bar.t8 VDD.t112 VDD.t111 sky130_fd_pr__pfet_01v8 ad=1.8e+12p pd=7.2e+06u as=0p ps=0u w=3e+06u l=150000u
X92 CMOS_sbox_0/CMOS_s2_0/CMOS_AND_0/A CMOS_sbox_0/CMOS_s1_0/CMOS_XOR_0/A.t9 a_n732_n4664# VDD.t156 sky130_fd_pr__pfet_01v8 ad=0p pd=0u as=0p ps=0u w=3e+06u l=150000u
X93 a_n2290_n5274# CMOS_sbox_0/CMOS_s1_0/CMOS_AND_1/B.t11 GND.t133 GND.t132 sky130_fd_pr__nfet_01v8 ad=0p pd=0u as=0p ps=0u w=1.5e+06u l=150000u
X94 VDD.t81 CMOS_sbox_0/CMOS_s3_0/CMOS_AND_0/A a_425_n7820# VDD.t80 sky130_fd_pr__pfet_01v8 ad=0p pd=0u as=0p ps=0u w=3e+06u l=150000u
X95 VDD.t110 CMOS_sbox_0/CMOS_s1_0/CMOS_XOR_0/B_bar.t9 a_n2495_n3696# VDD.t109 sky130_fd_pr__pfet_01v8 ad=0p pd=0u as=0p ps=0u w=3e+06u l=150000u
X96 CMOS_sbox_0/CMOS_s2_0/CMOS_XNOR_0/XNOR a_n2140_n5274# GND.t62 GND.t61 sky130_fd_pr__nfet_01v8 ad=9e+11p pd=4.2e+06u as=0p ps=0u w=1.5e+06u l=150000u
X97 GND.t163 x3_bar.t1 a_n4395_n2786# GND.t76 sky130_fd_pr__nfet_01v8 ad=0p pd=0u as=9e+11p ps=4.2e+06u w=1.5e+06u l=150000u
X98 GND.t91 CMOS_sbox_0/CMOS_s2_0/CMOS_3in_OR_0/C.t3 a_275_n5942# GND.t90 sky130_fd_pr__nfet_01v8 ad=0p pd=0u as=1.8e+12p ps=8.4e+06u w=1.5e+06u l=150000u
X99 a_n1990_n7820# CMOS_sbox_0/CMOS_s1_0/CMOS_XOR_0/A_bar.t6 a_n2140_n8430# VDD.t21 sky130_fd_pr__pfet_01v8 ad=1.8e+12p pd=7.2e+06u as=0p ps=0u w=3e+06u l=150000u
X100 GND.t51 x1_bar.t0 a_n4395_370# GND.t40 sky130_fd_pr__nfet_01v8 ad=0p pd=0u as=0p ps=0u w=1.5e+06u l=150000u
X101 a_n432_n5274# CMOS_sbox_0/CMOS_s1_0/CMOS_XNOR_0/A_bar.t9 CMOS_sbox_0/CMOS_s2_0/CMOS_AND_0/A GND.t149 sky130_fd_pr__nfet_01v8 ad=9e+11p pd=4.2e+06u as=9e+11p ps=4.2e+06u w=1.5e+06u l=150000u
X102 CMOS_sbox_0/CMOS_s2_0/CMOS_AND_0/AND a_425_n4664# VDD.t45 VDD.t44 sky130_fd_pr__pfet_01v8 ad=1.8e+12p pd=7.2e+06u as=0p ps=0u w=3e+06u l=150000u
X103 a_n4395_n2786# k3_bar.t0 CMOS_sbox_0/CMOS_s1_0/CMOS_AND_1/B.t3 GND.t46 sky130_fd_pr__nfet_01v8 ad=0p pd=0u as=0p ps=0u w=1.5e+06u l=150000u
X104 a_n2495_n3696# CMOS_sbox_0/CMOS_s1_0/CMOS_XOR_0/A.t10 VDD.t1 VDD.t0 sky130_fd_pr__pfet_01v8 ad=0p pd=0u as=0p ps=0u w=3e+06u l=150000u
X105 a_425_n8430# CMOS_sbox_0/CMOS_s1_0/CMOS_XOR_0/A.t11 GND.t21 GND.t20 sky130_fd_pr__nfet_01v8 ad=9e+11p pd=4.2e+06u as=0p ps=0u w=1.5e+06u l=150000u
X106 a_425_n540# CMOS_sbox_0/CMOS_s0_0/CMOS_XNOR_0/XNOR VDD.t9 VDD.t8 sky130_fd_pr__pfet_01v8 ad=1.8e+12p pd=7.2e+06u as=0p ps=0u w=3e+06u l=150000u
X107 VDD.t122 CMOS_sbox_0/CMOS_s1_0/CMOS_XNOR_0/XNOR a_n787_n3696# VDD.t121 sky130_fd_pr__pfet_01v8 ad=0p pd=0u as=1.8e+12p ps=7.2e+06u w=3e+06u l=150000u
X108 CMOS_sbox_0/CMOS_s3_0/CMOS_3in_AND_0/OUT.t0 a_n2495_n10008# VDD.t53 VDD.t52 sky130_fd_pr__pfet_01v8 ad=0p pd=0u as=0p ps=0u w=3e+06u l=150000u
X109 a_425_n6852# CMOS_sbox_0/CMOS_s2_0/CMOS_AND_1/AND VDD.t163 VDD.t162 sky130_fd_pr__pfet_01v8 ad=1.8e+12p pd=7.2e+06u as=0p ps=0u w=3e+06u l=150000u
X110 VDD.t75 CMOS_sbox_0/CMOS_s0_0/CMOS_AND_1/A a_425_n540# VDD.t74 sky130_fd_pr__pfet_01v8 ad=0p pd=0u as=0p ps=0u w=3e+06u l=150000u
X111 CMOS_sbox_0/CMOS_s2_0/CMOS_AND_0/A CMOS_sbox_0/CMOS_s1_0/CMOS_XNOR_0/A.t9 a_n732_n5274# GND.t157 sky130_fd_pr__nfet_01v8 ad=0p pd=0u as=0p ps=0u w=1.5e+06u l=150000u
X112 a_425_n7820# CMOS_sbox_0/CMOS_s3_0/CMOS_AND_0/A a_425_n8430# GND.t68 sky130_fd_pr__nfet_01v8 ad=9e+11p pd=4.2e+06u as=0p ps=0u w=1.5e+06u l=150000u
X113 a_n787_n3696# CMOS_sbox_0/CMOS_s1_0/CMOS_AND_1/B.t12 VDD.t138 VDD.t137 sky130_fd_pr__pfet_01v8 ad=0p pd=0u as=0p ps=0u w=3e+06u l=150000u
X114 a_575_n6852# CMOS_sbox_0/CMOS_s2_0/CMOS_AND_0/AND a_425_n6852# VDD.t43 sky130_fd_pr__pfet_01v8 ad=0p pd=0u as=0p ps=0u w=3e+06u l=150000u
X115 VDD.t136 CMOS_sbox_0/CMOS_s1_0/CMOS_AND_1/B.t13 a_n432_n7820# VDD.t135 sky130_fd_pr__pfet_01v8 ad=0p pd=0u as=0p ps=0u w=3e+06u l=150000u
X116 a_n1990_n8430# CMOS_sbox_0/CMOS_s1_0/CMOS_XNOR_0/A_bar.t10 a_n2140_n8430# GND.t66 sky130_fd_pr__nfet_01v8 ad=9e+11p pd=4.2e+06u as=0p ps=0u w=1.5e+06u l=150000u
X117 VDD.t179 CMOS_sbox_0/CMOS_s1_0/CMOS_XNOR_0/A.t10 a_n1990_n7820# VDD.t178 sky130_fd_pr__pfet_01v8 ad=0p pd=0u as=0p ps=0u w=3e+06u l=150000u
X118 a_n2345_n5942# CMOS_sbox_0/CMOS_s1_0/CMOS_XNOR_0/B.t10 GND.t45 GND.t44 sky130_fd_pr__nfet_01v8 ad=9e+11p pd=4.2e+06u as=0p ps=0u w=1.5e+06u l=150000u
X119 CMOS_sbox_0/CMOS_s0_0/CMOS_AND_0/A CMOS_sbox_0/CMOS_s1_0/CMOS_AND_1/B.t14 a_n2290_1038# GND.t131 sky130_fd_pr__nfet_01v8 ad=0p pd=0u as=9e+11p ps=4.2e+06u w=1.5e+06u l=150000u
X120 GND.t36 CMOS_sbox_0/CMOS_s1_0/CMOS_XOR_0/B_bar.t10 a_n1990_370# GND.t35 sky130_fd_pr__nfet_01v8 ad=0p pd=0u as=9e+11p ps=4.2e+06u w=1.5e+06u l=150000u
X121 CMOS_sbox_0/CMOS_s2_0/CMOS_AND_0/AND a_425_n4664# GND.t55 GND.t54 sky130_fd_pr__nfet_01v8 ad=9e+11p pd=4.2e+06u as=0p ps=0u w=1.5e+06u l=150000u
X122 a_n2290_1038# CMOS_sbox_0/CMOS_s1_0/CMOS_XNOR_0/A.t11 GND.t156 GND.t79 sky130_fd_pr__nfet_01v8 ad=0p pd=0u as=0p ps=0u w=1.5e+06u l=150000u
X123 a_425_n4664# CMOS_sbox_0/CMOS_s1_0/CMOS_XNOR_0/B_bar.t8 VDD.t13 VDD.t12 sky130_fd_pr__pfet_01v8 ad=1.8e+12p pd=7.2e+06u as=0p ps=0u w=3e+06u l=150000u
X124 GND.t13 CMOS_sbox_0/CMOS_s1_0/CMOS_XNOR_0/B_bar.t9 a_n787_1038# GND.t12 sky130_fd_pr__nfet_01v8 ad=0p pd=0u as=9e+11p ps=4.2e+06u w=1.5e+06u l=150000u
X125 CMOS_sbox_0/CMOS_s1_0/CMOS_XOR_0/A.t3 k1.t0 a_n4695_370# GND.t138 sky130_fd_pr__nfet_01v8 ad=0p pd=0u as=0p ps=0u w=1.5e+06u l=150000u
X126 CMOS_sbox_0/CMOS_s0_0/CMOS_XNOR_0/XNOR a_n2140_n540# GND.t73 GND.t72 sky130_fd_pr__nfet_01v8 ad=9e+11p pd=4.2e+06u as=0p ps=0u w=1.5e+06u l=150000u
X127 a_425_370# CMOS_sbox_0/CMOS_s0_0/CMOS_XNOR_0/XNOR GND.t5 GND.t4 sky130_fd_pr__nfet_01v8 ad=0p pd=0u as=0p ps=0u w=1.5e+06u l=150000u
X128 a_n787_1038# CMOS_sbox_0/CMOS_s1_0/CMOS_XOR_0/A.t12 GND.t7 GND.t6 sky130_fd_pr__nfet_01v8 ad=0p pd=0u as=0p ps=0u w=1.5e+06u l=150000u
X129 GND.t82 CMOS_sbox_0/CMOS_s1_0/CMOS_AND_1/AND a_275_n2786# GND.t27 sky130_fd_pr__nfet_01v8 ad=0p pd=0u as=0p ps=0u w=1.5e+06u l=150000u
X130 VDD.t134 CMOS_sbox_0/CMOS_s1_0/CMOS_AND_1/B.t15 a_n1990_1648# VDD.t133 sky130_fd_pr__pfet_01v8 ad=0p pd=0u as=1.8e+12p ps=7.2e+06u w=3e+06u l=150000u
X131 GND.t95 CMOS_sbox_0/CMOS_s3_0/CMOS_3in_AND_0/OUT.t2 a_275_n9098# GND.t94 sky130_fd_pr__nfet_01v8 ad=0p pd=0u as=1.8e+12p ps=8.4e+06u w=1.5e+06u l=150000u
X132 a_n2345_n6852# CMOS_sbox_0/CMOS_s1_0/CMOS_XOR_0/A.t13 VDD.t85 VDD.t84 sky130_fd_pr__pfet_01v8 ad=0p pd=0u as=0p ps=0u w=3e+06u l=150000u
X133 VDD.t79 CMOS_sbox_0/CMOS_s2_0/CMOS_AND_0/A a_425_n4664# VDD.t78 sky130_fd_pr__pfet_01v8 ad=0p pd=0u as=0p ps=0u w=3e+06u l=150000u
X134 a_275_n2786# CMOS_sbox_0/CMOS_s1_0/CMOS_AND_0/AND GND.t23 GND.t22 sky130_fd_pr__nfet_01v8 ad=0p pd=0u as=0p ps=0u w=1.5e+06u l=150000u
X135 a_n1990_n4664# CMOS_sbox_0/CMOS_s1_0/CMOS_XOR_0/B_bar.t11 a_n2140_n5274# VDD.t108 sky130_fd_pr__pfet_01v8 ad=1.8e+12p pd=7.2e+06u as=0p ps=0u w=3e+06u l=150000u
X136 CMOS_sbox_0/CMOS_s0_0/CMOS_AND_1/A a_n787_n540# GND.t128 GND.t98 sky130_fd_pr__nfet_01v8 ad=9e+11p pd=4.2e+06u as=0p ps=0u w=1.5e+06u l=150000u
X137 CMOS_sbox_0/CMOS_s1_0/CMOS_AND_1/AND a_n787_n3696# VDD.t93 VDD.t92 sky130_fd_pr__pfet_01v8 ad=1.8e+12p pd=7.2e+06u as=0p ps=0u w=3e+06u l=150000u
X138 GND.t58 CMOS_sbox_0/CMOS_s1_0/CMOS_XNOR_0/B_bar.t10 a_n432_n8430# GND.t57 sky130_fd_pr__nfet_01v8 ad=0p pd=0u as=0p ps=0u w=1.5e+06u l=150000u
X139 VDD.t177 CMOS_sbox_0/CMOS_s1_0/CMOS_XNOR_0/A.t12 a_n2345_n6852# VDD.t176 sky130_fd_pr__pfet_01v8 ad=0p pd=0u as=0p ps=0u w=3e+06u l=150000u
X140 GND.t93 CMOS_sbox_0/CMOS_s1_0/CMOS_XOR_0/A_bar.t7 a_n1990_n8430# GND.t92 sky130_fd_pr__nfet_01v8 ad=0p pd=0u as=0p ps=0u w=1.5e+06u l=150000u
X141 CMOS_sbox_0/CMOS_s1_0/CMOS_XNOR_0/A_bar.t0 CMOS_sbox_0/CMOS_s1_0/CMOS_XNOR_0/A.t13 VDD.t175 VDD.t174 sky130_fd_pr__pfet_01v8 ad=0p pd=0u as=0p ps=0u w=3e+06u l=150000u
X142 VDD.t48 CMOS_sbox_0/CMOS_s2_0/CMOS_XNOR_0/XNOR a_n787_n6852# VDD.t47 sky130_fd_pr__pfet_01v8 ad=0p pd=0u as=1.8e+12p ps=7.2e+06u w=3e+06u l=150000u
X143 a_425_n5274# CMOS_sbox_0/CMOS_s1_0/CMOS_XNOR_0/B_bar.t11 GND.t162 GND.t143 sky130_fd_pr__nfet_01v8 ad=9e+11p pd=4.2e+06u as=0p ps=0u w=1.5e+06u l=150000u
X144 a_1637_1038# CMOS_sbox_0/CMOS_s0_0/CMOS_OR_0/B a_1637_1648# VDD.t55 sky130_fd_pr__pfet_01v8 ad=1.8e+12p pd=7.2e+06u as=0p ps=0u w=3e+06u l=150000u
X145 s0.t1 a_1637_1038# GND.t86 GND.t85 sky130_fd_pr__nfet_01v8 ad=0p pd=0u as=0p ps=0u w=1.5e+06u l=150000u
X146 a_n787_n540# CMOS_sbox_0/CMOS_s1_0/CMOS_XNOR_0/B.t11 a_n787_370# GND.t12 sky130_fd_pr__nfet_01v8 ad=9e+11p pd=4.2e+06u as=0p ps=0u w=1.5e+06u l=150000u
X147 a_n2495_n3696# CMOS_sbox_0/CMOS_s1_0/CMOS_XOR_0/B_bar.t12 a_n2195_n2786# GND.t78 sky130_fd_pr__nfet_01v8 ad=9e+11p pd=4.2e+06u as=9e+11p ps=4.2e+06u w=1.5e+06u l=150000u
X148 CMOS_sbox_0/CMOS_s1_0/CMOS_3in_AND_0/OUT.t0 a_n2495_n3696# VDD.t83 VDD.t82 sky130_fd_pr__pfet_01v8 ad=0p pd=0u as=0p ps=0u w=3e+06u l=150000u
X149 a_n787_n6852# CMOS_sbox_0/CMOS_s1_0/CMOS_XOR_0/A_bar.t8 VDD.t34 VDD.t33 sky130_fd_pr__pfet_01v8 ad=0p pd=0u as=0p ps=0u w=3e+06u l=150000u
X150 a_425_n4664# CMOS_sbox_0/CMOS_s2_0/CMOS_AND_0/A a_425_n5274# GND.t52 sky130_fd_pr__nfet_01v8 ad=9e+11p pd=4.2e+06u as=0p ps=0u w=1.5e+06u l=150000u
X151 VDD.t173 CMOS_sbox_0/CMOS_s1_0/CMOS_XNOR_0/A.t14 a_n1990_n540# VDD.t152 sky130_fd_pr__pfet_01v8 ad=0p pd=0u as=1.8e+12p ps=7.2e+06u w=3e+06u l=150000u
X152 a_n2345_n9098# CMOS_sbox_0/CMOS_s1_0/CMOS_AND_1/B.t16 GND.t130 GND.t129 sky130_fd_pr__nfet_01v8 ad=9e+11p pd=4.2e+06u as=0p ps=0u w=1.5e+06u l=150000u
X153 VDD.t172 CMOS_sbox_0/CMOS_s1_0/CMOS_XNOR_0/A.t15 a_n432_n4664# VDD.t171 sky130_fd_pr__pfet_01v8 ad=0p pd=0u as=0p ps=0u w=3e+06u l=150000u
X154 VDD.t147 CMOS_sbox_0/CMOS_s1_0/CMOS_XNOR_0/B.t12 a_n1990_n4664# VDD.t146 sky130_fd_pr__pfet_01v8 ad=0p pd=0u as=0p ps=0u w=3e+06u l=150000u
X155 a_n1990_n5274# CMOS_sbox_0/CMOS_s1_0/CMOS_XNOR_0/B_bar.t12 a_n2140_n5274# GND.t56 sky130_fd_pr__nfet_01v8 ad=9e+11p pd=4.2e+06u as=0p ps=0u w=1.5e+06u l=150000u
X156 a_n2195_n2786# CMOS_sbox_0/CMOS_s1_0/CMOS_XOR_0/A.t14 a_n2345_n2786# GND.t121 sky130_fd_pr__nfet_01v8 ad=0p pd=0u as=0p ps=0u w=1.5e+06u l=150000u
X157 a_n732_n1508# CMOS_sbox_0/CMOS_s1_0/CMOS_XOR_0/B_bar.t13 VDD.t107 VDD.t106 sky130_fd_pr__pfet_01v8 ad=1.8e+12p pd=7.2e+06u as=0p ps=0u w=3e+06u l=150000u
X158 a_n787_n3696# CMOS_sbox_0/CMOS_s1_0/CMOS_XNOR_0/XNOR a_n787_n2786# GND.t124 sky130_fd_pr__nfet_01v8 ad=9e+11p pd=4.2e+06u as=9e+11p ps=4.2e+06u w=1.5e+06u l=150000u
X159 GND.t144 CMOS_sbox_0/CMOS_s2_0/CMOS_AND_1/AND a_275_n5942# GND.t143 sky130_fd_pr__nfet_01v8 ad=0p pd=0u as=0p ps=0u w=1.5e+06u l=150000u
X160 CMOS_sbox_0/CMOS_s0_0/CMOS_OR_0/A a_425_1648# VDD.t124 VDD.t123 sky130_fd_pr__pfet_01v8 ad=1.8e+12p pd=7.2e+06u as=0p ps=0u w=3e+06u l=150000u
X161 CMOS_sbox_0/CMOS_s1_0/CMOS_XOR_0/A_bar.t1 CMOS_sbox_0/CMOS_s1_0/CMOS_XOR_0/A.t15 GND.t146 GND.t145 sky130_fd_pr__nfet_01v8 ad=0p pd=0u as=0p ps=0u w=1.5e+06u l=150000u
X162 CMOS_sbox_0/CMOS_s1_0/CMOS_XOR_0/A_bar.t0 CMOS_sbox_0/CMOS_s1_0/CMOS_XOR_0/A.t16 VDD.t165 VDD.t144 sky130_fd_pr__pfet_01v8 ad=0p pd=0u as=0p ps=0u w=3e+06u l=150000u
X163 a_425_1038# CMOS_sbox_0/CMOS_s0_0/CMOS_OR_1/OR GND.t117 GND.t4 sky130_fd_pr__nfet_01v8 ad=9e+11p pd=4.2e+06u as=0p ps=0u w=1.5e+06u l=150000u
X164 a_1637_1038# CMOS_sbox_0/CMOS_s0_0/CMOS_OR_0/A GND.t119 GND.t118 sky130_fd_pr__nfet_01v8 ad=9e+11p pd=4.2e+06u as=0p ps=0u w=1.5e+06u l=150000u
X165 VDD.t158 k0.t1 a_n4395_1648# VDD.t157 sky130_fd_pr__pfet_01v8 ad=0p pd=0u as=1.8e+12p ps=7.2e+06u w=3e+06u l=150000u
X166 a_275_n5942# CMOS_sbox_0/CMOS_s2_0/CMOS_AND_0/AND GND.t53 GND.t52 sky130_fd_pr__nfet_01v8 ad=0p pd=0u as=0p ps=0u w=1.5e+06u l=150000u
X167 a_n4395_1648# x0_bar.t1 CMOS_sbox_0/CMOS_s1_0/CMOS_XNOR_0/A.t1 VDD.t22 sky130_fd_pr__pfet_01v8 ad=0p pd=0u as=0p ps=0u w=3e+06u l=150000u
X168 a_425_1648# CMOS_sbox_0/CMOS_s0_0/CMOS_AND_0/A a_425_1038# GND.t81 sky130_fd_pr__nfet_01v8 ad=9e+11p pd=4.2e+06u as=0p ps=0u w=1.5e+06u l=150000u
X169 CMOS_sbox_0/CMOS_s1_0/CMOS_XNOR_0/B.t0 x2.t0 a_n4695_n1508# VDD.t37 sky130_fd_pr__pfet_01v8 ad=0p pd=0u as=1.8e+12p ps=7.2e+06u w=3e+06u l=150000u
X170 a_n787_n2786# CMOS_sbox_0/CMOS_s1_0/CMOS_AND_1/B.t17 GND.t75 GND.t74 sky130_fd_pr__nfet_01v8 ad=0p pd=0u as=0p ps=0u w=1.5e+06u l=150000u
X171 CMOS_sbox_0/CMOS_s2_0/CMOS_AND_1/AND a_n787_n6852# VDD.t161 VDD.t160 sky130_fd_pr__pfet_01v8 ad=1.8e+12p pd=7.2e+06u as=0p ps=0u w=3e+06u l=150000u
X172 s1.t0 a_275_n2786# VDD.t126 VDD.t125 sky130_fd_pr__pfet_01v8 ad=0p pd=0u as=0p ps=0u w=3e+06u l=150000u
X173 GND.t50 CMOS_sbox_0/CMOS_s1_0/CMOS_XOR_0/A_bar.t9 a_n432_n5274# GND.t49 sky130_fd_pr__nfet_01v8 ad=0p pd=0u as=0p ps=0u w=1.5e+06u l=150000u
X174 GND.t11 CMOS_sbox_0/CMOS_s1_0/CMOS_XOR_0/B_bar.t14 a_n1990_n5274# GND.t10 sky130_fd_pr__nfet_01v8 ad=0p pd=0u as=0p ps=0u w=1.5e+06u l=150000u
X175 a_n4695_n1508# k2_bar.t1 VDD.t164 VDD.t67 sky130_fd_pr__pfet_01v8 ad=0p pd=0u as=0p ps=0u w=3e+06u l=150000u
X176 a_n732_n2118# CMOS_sbox_0/CMOS_s1_0/CMOS_XOR_0/A.t17 GND.t32 GND.t31 sky130_fd_pr__nfet_01v8 ad=0p pd=0u as=0p ps=0u w=1.5e+06u l=150000u
X177 CMOS_sbox_0/CMOS_s1_0/CMOS_XNOR_0/B_bar.t0 CMOS_sbox_0/CMOS_s1_0/CMOS_XNOR_0/B.t13 VDD.t145 VDD.t144 sky130_fd_pr__pfet_01v8 ad=0p pd=0u as=0p ps=0u w=3e+06u l=150000u
X178 a_275_n9098# CMOS_sbox_0/CMOS_s3_0/CMOS_3in_AND_0/OUT.t3 a_575_n10008# VDD.t3 sky130_fd_pr__pfet_01v8 ad=1.8e+12p pd=7.2e+06u as=0p ps=0u w=3e+06u l=150000u
X179 a_n2045_n5942# CMOS_sbox_0/CMOS_s1_0/CMOS_XOR_0/A.t18 a_n2195_n5942# GND.t37 sky130_fd_pr__nfet_01v8 ad=0p pd=0u as=9e+11p ps=4.2e+06u w=1.5e+06u l=150000u
X180 CMOS_sbox_0/CMOS_s0_0/CMOS_OR_0/B a_425_n540# VDD.t5 VDD.t4 sky130_fd_pr__pfet_01v8 ad=1.8e+12p pd=7.2e+06u as=0p ps=0u w=3e+06u l=150000u
X181 VDD.t36 k1.t1 a_n4395_n540# VDD.t35 sky130_fd_pr__pfet_01v8 ad=0p pd=0u as=1.8e+12p ps=7.2e+06u w=3e+06u l=150000u
X182 CMOS_sbox_0/CMOS_s1_0/CMOS_XNOR_0/B.t2 k2.t0 a_n4695_n2118# GND.t65 sky130_fd_pr__nfet_01v8 ad=0p pd=0u as=9e+11p ps=4.2e+06u w=1.5e+06u l=150000u
X183 CMOS_sbox_0/CMOS_s1_0/CMOS_AND_1/AND a_n787_n3696# GND.t109 GND.t108 sky130_fd_pr__nfet_01v8 ad=9e+11p pd=4.2e+06u as=0p ps=0u w=1.5e+06u l=150000u
X184 a_n2195_n5942# CMOS_sbox_0/CMOS_s1_0/CMOS_XNOR_0/A.t16 a_n2345_n5942# GND.t155 sky130_fd_pr__nfet_01v8 ad=0p pd=0u as=0p ps=0u w=1.5e+06u l=150000u
X185 VDD.t132 CMOS_sbox_0/CMOS_s1_0/CMOS_AND_1/B.t18 a_n2495_n10008# VDD.t131 sky130_fd_pr__pfet_01v8 ad=0p pd=0u as=0p ps=0u w=3e+06u l=150000u
X186 a_n4395_n540# x1_bar.t1 CMOS_sbox_0/CMOS_s1_0/CMOS_XOR_0/A.t0 VDD.t23 sky130_fd_pr__pfet_01v8 ad=0p pd=0u as=0p ps=0u w=3e+06u l=150000u
X187 GND.t116 CMOS_sbox_0/CMOS_s3_0/CMOS_AND_1/AND a_275_n9098# GND.t20 sky130_fd_pr__nfet_01v8 ad=0p pd=0u as=0p ps=0u w=1.5e+06u l=150000u
X188 a_n787_n6852# CMOS_sbox_0/CMOS_s2_0/CMOS_XNOR_0/XNOR a_n787_n5942# GND.t60 sky130_fd_pr__nfet_01v8 ad=9e+11p pd=4.2e+06u as=9e+11p ps=4.2e+06u w=1.5e+06u l=150000u
X189 CMOS_sbox_0/CMOS_s0_0/CMOS_OR_1/OR a_n787_1038# VDD.t77 VDD.t76 sky130_fd_pr__pfet_01v8 ad=1.8e+12p pd=7.2e+06u as=0p ps=0u w=3e+06u l=150000u
X190 a_n4695_n2118# x2.t1 GND.t19 GND.t18 sky130_fd_pr__nfet_01v8 ad=0p pd=0u as=0p ps=0u w=1.5e+06u l=150000u
X191 a_425_n10008# CMOS_sbox_0/CMOS_s3_0/CMOS_AND_1/AND VDD.t100 VDD.t99 sky130_fd_pr__pfet_01v8 ad=0p pd=0u as=0p ps=0u w=3e+06u l=150000u
X192 a_275_n9098# CMOS_sbox_0/CMOS_s3_0/CMOS_AND_0/AND GND.t69 GND.t68 sky130_fd_pr__nfet_01v8 ad=0p pd=0u as=0p ps=0u w=1.5e+06u l=150000u
X193 CMOS_sbox_0/CMOS_s1_0/CMOS_XNOR_0/B_bar.t1 CMOS_sbox_0/CMOS_s1_0/CMOS_XNOR_0/B.t14 GND.t113 GND.t112 sky130_fd_pr__nfet_01v8 ad=0p pd=0u as=0p ps=0u w=1.5e+06u l=150000u
X194 a_n787_n5942# CMOS_sbox_0/CMOS_s1_0/CMOS_XOR_0/A_bar.t10 GND.t151 GND.t150 sky130_fd_pr__nfet_01v8 ad=0p pd=0u as=0p ps=0u w=1.5e+06u l=150000u
X195 CMOS_sbox_0/CMOS_s1_0/CMOS_3in_AND_0/OUT.t1 a_n2495_n3696# GND.t103 GND.t102 sky130_fd_pr__nfet_01v8 ad=0p pd=0u as=0p ps=0u w=1.5e+06u l=150000u
X196 s2.t0 a_275_n5942# VDD.t98 VDD.t97 sky130_fd_pr__pfet_01v8 ad=0p pd=0u as=0p ps=0u w=3e+06u l=150000u