* NGSPICE file created from EESPFAL_PRESENT80_R1_flat.ext - technology: sky130A

.subckt EESPFAL_PRESENT80_R1_flat GND x0 x0_bar k0 k0_bar x1 x1_bar k1 k1_bar x2 x2_bar
+ k2 k2_bar x3 x3_bar k3 k3_bar s0 s0_bar Dis0 Dis1 s2 s2_bar s3_bar s3 s1_bar s1
+ Dis2 Dis3 CLK0 CLK2 CLK3 CLK1
X0 s0.t3 EESPFAL_Sbox_0/EESPFAL_s0_0/EESPFAL_NOR_v3_0/B CLK3.t26 GND.t217 sky130_fd_pr__nfet_01v8 ad=0p pd=0u as=0p ps=0u w=1.5e+06u l=150000u
X1 CLK0.t33 x3_bar.t0 a_1180_5008# GND.t239 sky130_fd_pr__nfet_01v8 ad=0p pd=0u as=9e+11p ps=4.2e+06u w=1.5e+06u l=150000u
X2 EESPFAL_Sbox_0/EESPFAL_s3_0/EESPFAL_NAND_v3_1/A_bar.t4 EESPFAL_Sbox_0/EESPFAL_s3_0/EESPFAL_NAND_v3_1/A.t6 CLK1.t186 CLK1.t185 sky130_fd_pr__pfet_01v8 ad=0p pd=0u as=0p ps=0u w=1.5e+06u l=150000u
X3 GND.t241 Dis3.t0 s1_bar.t0 GND.t240 sky130_fd_pr__nfet_01v8 ad=0p pd=0u as=0p ps=0u w=1.5e+06u l=150000u
X4 EESPFAL_Sbox_0/EESPFAL_s3_0/EESPFAL_NAND_v3_0/OUT EESPFAL_Sbox_0/EESPFAL_s3_0/EESPFAL_NAND_v3_0/OUT_bar.t6 GND.t65 GND.t64 sky130_fd_pr__nfet_01v8 ad=1.8e+12p pd=8.4e+06u as=0p ps=0u w=1.5e+06u l=150000u
X5 GND.t275 EESPFAL_Sbox_0/EESPFAL_s3_0/EESPFAL_NAND_v3_1/OUT EESPFAL_Sbox_0/EESPFAL_s3_0/EESPFAL_NAND_v3_1/OUT_bar GND.t274 sky130_fd_pr__nfet_01v8 ad=0p pd=0u as=2.7e+12p ps=1.26e+07u w=1.5e+06u l=150000u
X6 a_6287_n6133# EESPFAL_Sbox_0/EESPFAL_s0_0/EESPFAL_XOR_v3_0/A a_6137_n6133# GND.t135 sky130_fd_pr__nfet_01v8 ad=9e+11p pd=4.2e+06u as=9e+11p ps=4.2e+06u w=1.5e+06u l=150000u
X7 CLK1.t11 EESPFAL_Sbox_0/EESPFAL_s2_0/EESPFAL_NAND_v3_1/A_bar EESPFAL_Sbox_0/EESPFAL_s2_0/EESPFAL_NAND_v3_1/A CLK1.t10 sky130_fd_pr__pfet_01v8 ad=0p pd=0u as=9e+11p ps=4.2e+06u w=1.5e+06u l=150000u
X8 EESPFAL_Sbox_0/EESPFAL_s3_0/EESPFAL_NAND_v3_1/B_bar EESPFAL_Sbox_0/EESPFAL_s3_0/EESPFAL_NAND_v3_1/B CLK1.t74 CLK1.t73 sky130_fd_pr__pfet_01v8 ad=9e+11p pd=4.2e+06u as=0p ps=0u w=1.5e+06u l=150000u
X9 EESPFAL_Sbox_0/EESPFAL_s2_0/EESPFAL_NAND_v3_0/A_bar.t0 EESPFAL_Sbox_0/EESPFAL_s0_0/EESPFAL_NOR_v3_1/B_bar.t6 a_6476_n1173# GND.t134 sky130_fd_pr__nfet_01v8 ad=0p pd=0u as=9e+11p ps=4.2e+06u w=1.5e+06u l=150000u
X10 CLK1.t29 EESPFAL_Sbox_0/EESPFAL_s0_0/EESPFAL_NOR_v3_1/A a_6136_4548# GND.t48 sky130_fd_pr__nfet_01v8 ad=0p pd=0u as=9e+11p ps=4.2e+06u w=1.5e+06u l=150000u
X11 EESPFAL_Sbox_0/EESPFAL_s0_0/EESPFAL_XOR_v3_0/B_bar.t3 EESPFAL_Sbox_0/EESPFAL_s0_0/EESPFAL_XOR_v3_0/B CLK0.t38 CLK0.t37 sky130_fd_pr__pfet_01v8 ad=0p pd=0u as=0p ps=0u w=1.5e+06u l=150000u
X12 GND.t253 Dis2.t0 EESPFAL_Sbox_0/EESPFAL_s0_0/EESPFAL_NOR_v3_0/B GND.t252 sky130_fd_pr__nfet_01v8 ad=0p pd=0u as=1.8e+12p ps=8.4e+06u w=1.5e+06u l=150000u
X13 GND.t71 EESPFAL_Sbox_0/EESPFAL_s1_0/EESPFAL_NAND_v3_1/A.t6 EESPFAL_Sbox_0/EESPFAL_s1_0/EESPFAL_NAND_v3_1/A_bar.t3 GND.t70 sky130_fd_pr__nfet_01v8 ad=0p pd=0u as=0p ps=0u w=1.5e+06u l=150000u
X14 a_6436_4548# EESPFAL_Sbox_0/EESPFAL_s0_0/EESPFAL_NOR_v3_1/A_bar.t6 CLK1.t105 GND.t97 sky130_fd_pr__nfet_01v8 ad=9e+11p pd=4.2e+06u as=0p ps=0u w=1.5e+06u l=150000u
X15 a_4916_n1173# EESPFAL_Sbox_0/EESPFAL_s0_0/EESPFAL_XOR_v3_0/B CLK1.t166 GND.t37 sky130_fd_pr__nfet_01v8 ad=9e+11p pd=4.2e+06u as=0p ps=0u w=1.5e+06u l=150000u
X16 CLK1.t106 EESPFAL_Sbox_0/EESPFAL_s0_0/EESPFAL_NOR_v3_1/A_bar.t7 a_4576_4548# GND.t16 sky130_fd_pr__nfet_01v8 ad=0p pd=0u as=9e+11p ps=4.2e+06u w=1.5e+06u l=150000u
X17 CLK1.t21 EESPFAL_Sbox_0/EESPFAL_s1_0/EESPFAL_NAND_v3_1/B_bar EESPFAL_Sbox_0/EESPFAL_s1_0/EESPFAL_NAND_v3_1/B CLK1.t20 sky130_fd_pr__pfet_01v8 ad=0p pd=0u as=9e+11p ps=4.2e+06u w=1.5e+06u l=150000u
X18 EESPFAL_Sbox_0/EESPFAL_s1_0/EESPFAL_NAND_v3_1/A.t2 EESPFAL_Sbox_0/EESPFAL_s1_0/EESPFAL_NAND_v3_1/A_bar.t6 GND.t141 GND.t140 sky130_fd_pr__nfet_01v8 ad=0p pd=0u as=0p ps=0u w=1.5e+06u l=150000u
X19 EESPFAL_Sbox_0/EESPFAL_s2_0/EESPFAL_NAND_v3_0/OUT EESPFAL_Sbox_0/EESPFAL_s2_0/EESPFAL_NAND_v3_0/OUT_bar.t6 GND.t300 GND.t156 sky130_fd_pr__nfet_01v8 ad=1.8e+12p pd=8.4e+06u as=0p ps=0u w=1.5e+06u l=150000u
X20 a_4876_4548# EESPFAL_Sbox_0/EESPFAL_s0_0/EESPFAL_NOR_v3_1/A CLK1.t30 GND.t47 sky130_fd_pr__nfet_01v8 ad=9e+11p pd=4.2e+06u as=0p ps=0u w=1.5e+06u l=150000u
X21 GND.t255 Dis2.t1 EESPFAL_Sbox_0/EESPFAL_s3_0/EESPFAL_NAND_v3_0/OUT GND.t254 sky130_fd_pr__nfet_01v8 ad=0p pd=0u as=0p ps=0u w=1.5e+06u l=150000u
X22 CLK1.t66 EESPFAL_Sbox_0/EESPFAL_s0_0/EESPFAL_NOR_v3_1/B.t6 a_6287_n6133# GND.t114 sky130_fd_pr__nfet_01v8 ad=0p pd=0u as=0p ps=0u w=1.5e+06u l=150000u
X23 EESPFAL_Sbox_0/EESPFAL_s1_0/EESPFAL_NAND_v3_1/B_bar EESPFAL_Sbox_0/EESPFAL_s1_0/EESPFAL_NAND_v3_1/B CLK1.t28 CLK1.t27 sky130_fd_pr__pfet_01v8 ad=9e+11p pd=4.2e+06u as=0p ps=0u w=1.5e+06u l=150000u
X24 EESPFAL_Sbox_0/EESPFAL_s3_0/EESPFAL_INV4_2/A_bar EESPFAL_Sbox_0/EESPFAL_s3_0/EESPFAL_INV4_2/A CLK1.t162 CLK1.t161 sky130_fd_pr__pfet_01v8 ad=9e+11p pd=4.2e+06u as=0p ps=0u w=1.5e+06u l=150000u
X25 EESPFAL_Sbox_0/EESPFAL_s0_0/EESPFAL_NOR_v3_0/A_bar EESPFAL_Sbox_0/EESPFAL_s0_0/EESPFAL_NOR_v3_0/A CLK2.t61 CLK2.t60 sky130_fd_pr__pfet_01v8 ad=9e+11p pd=4.2e+06u as=0p ps=0u w=1.5e+06u l=150000u
X26 CLK0.t21 x1.t0 a_2740_7368# GND.t213 sky130_fd_pr__nfet_01v8 ad=0p pd=0u as=9e+11p ps=4.2e+06u w=1.5e+06u l=150000u
X27 CLK2.t87 EESPFAL_Sbox_0/EESPFAL_s3_0/EESPFAL_INV4_2/A EESPFAL_Sbox_0/EESPFAL_s3_0/EESPFAL_3in_NOR_v2_0/C.t3 GND.t299 sky130_fd_pr__nfet_01v8 ad=0p pd=0u as=0p ps=0u w=1.5e+06u l=150000u
X28 CLK1.t141 EESPFAL_Sbox_0/EESPFAL_s0_0/EESPFAL_NAND_v3_1/B EESPFAL_Sbox_0/EESPFAL_s0_0/EESPFAL_NAND_v3_1/B_bar CLK1.t140 sky130_fd_pr__pfet_01v8 ad=0p pd=0u as=9e+11p ps=4.2e+06u w=1.5e+06u l=150000u
X29 EESPFAL_Sbox_0/EESPFAL_s1_0/EESPFAL_3in_NOR_v2_0/C_bar.t2 EESPFAL_Sbox_0/EESPFAL_s1_0/EESPFAL_INV4_2/A_bar CLK2.t57 GND.t258 sky130_fd_pr__nfet_01v8 ad=0p pd=0u as=0p ps=0u w=1.5e+06u l=150000u
X30 CLK2.t59 EESPFAL_Sbox_0/EESPFAL_s0_0/EESPFAL_NOR_v3_0/A EESPFAL_Sbox_0/EESPFAL_s0_0/EESPFAL_NOR_v3_0/A_bar CLK2.t58 sky130_fd_pr__pfet_01v8 ad=0p pd=0u as=0p ps=0u w=1.5e+06u l=150000u
X31 CLK1.t132 EESPFAL_Sbox_0/EESPFAL_s1_0/EESPFAL_INV4_2/A_bar EESPFAL_Sbox_0/EESPFAL_s1_0/EESPFAL_INV4_2/A CLK1.t131 sky130_fd_pr__pfet_01v8 ad=0p pd=0u as=9e+11p ps=4.2e+06u w=1.5e+06u l=150000u
X32 EESPFAL_Sbox_0/EESPFAL_s0_0/EESPFAL_NAND_v3_1/B EESPFAL_Sbox_0/EESPFAL_s0_0/EESPFAL_NAND_v3_1/B_bar CLK1.t90 CLK1.t89 sky130_fd_pr__pfet_01v8 ad=9e+11p pd=4.2e+06u as=0p ps=0u w=1.5e+06u l=150000u
X33 GND.t287 Dis2.t2 EESPFAL_Sbox_0/EESPFAL_s2_0/EESPFAL_NAND_v3_0/OUT GND.t286 sky130_fd_pr__nfet_01v8 ad=0p pd=0u as=0p ps=0u w=1.5e+06u l=150000u
X34 s3.t0 Dis3.t1 GND.t356 GND.t355 sky130_fd_pr__nfet_01v8 ad=0p pd=0u as=0p ps=0u w=1.5e+06u l=150000u
X35 EESPFAL_Sbox_0/EESPFAL_s3_0/EESPFAL_NAND_v3_0/A.t0 Dis1.t0 GND.t154 GND.t153 sky130_fd_pr__nfet_01v8 ad=0p pd=0u as=0p ps=0u w=1.5e+06u l=150000u
X36 EESPFAL_Sbox_0/EESPFAL_s2_0/EESPFAL_3in_NOR_v2_0/C.t3 EESPFAL_Sbox_0/EESPFAL_s2_0/EESPFAL_3in_NOR_v2_0/C_bar.t5 GND.t328 GND.t327 sky130_fd_pr__nfet_01v8 ad=0p pd=0u as=0p ps=0u w=1.5e+06u l=150000u
X37 EESPFAL_Sbox_0/EESPFAL_s2_0/EESPFAL_NAND_v3_1/A EESPFAL_Sbox_0/EESPFAL_s0_0/EESPFAL_XOR_v3_0/A a_6476_n493# GND.t134 sky130_fd_pr__nfet_01v8 ad=2.7e+12p pd=1.26e+07u as=9e+11p ps=4.2e+06u w=1.5e+06u l=150000u
X38 EESPFAL_Sbox_0/EESPFAL_s1_0/EESPFAL_NAND_v3_0/OUT EESPFAL_Sbox_0/EESPFAL_s1_0/EESPFAL_NAND_v3_0/OUT_bar.t6 GND.t193 GND.t192 sky130_fd_pr__nfet_01v8 ad=1.8e+12p pd=8.4e+06u as=0p ps=0u w=1.5e+06u l=150000u
X39 CLK0.t16 EESPFAL_Sbox_0/EESPFAL_s0_0/EESPFAL_XOR_v3_0/A EESPFAL_Sbox_0/EESPFAL_s0_0/EESPFAL_XOR_v3_0/A_bar.t1 CLK0.t15 sky130_fd_pr__pfet_01v8 ad=0p pd=0u as=0p ps=0u w=1.5e+06u l=150000u
X40 EESPFAL_Sbox_0/EESPFAL_s3_0/EESPFAL_NAND_v3_0/B_bar Dis1.t1 GND.t20 GND.t19 sky130_fd_pr__nfet_01v8 ad=1.8e+12p pd=8.4e+06u as=0p ps=0u w=1.5e+06u l=150000u
X41 CLK1.t31 EESPFAL_Sbox_0/EESPFAL_s0_0/EESPFAL_NOR_v3_1/A EESPFAL_Sbox_0/EESPFAL_s3_0/EESPFAL_NAND_v3_1/B GND.t46 sky130_fd_pr__nfet_01v8 ad=0p pd=0u as=1.8e+12p ps=8.4e+06u w=1.5e+06u l=150000u
X42 GND.t288 Dis2.t3 EESPFAL_Sbox_0/EESPFAL_s1_0/EESPFAL_NAND_v3_0/OUT GND.t174 sky130_fd_pr__nfet_01v8 ad=0p pd=0u as=0p ps=0u w=1.5e+06u l=150000u
X43 GND.t18 Dis1.t2 EESPFAL_Sbox_0/EESPFAL_s3_0/EESPFAL_INV4_2/A GND.t17 sky130_fd_pr__nfet_01v8 ad=0p pd=0u as=1.8e+12p ps=8.4e+06u w=1.5e+06u l=150000u
X44 GND.t106 s2_bar.t5 s2.t6 GND.t105 sky130_fd_pr__nfet_01v8 ad=0p pd=0u as=0p ps=0u w=1.5e+06u l=150000u
X45 EESPFAL_Sbox_0/EESPFAL_s0_0/EESPFAL_XOR_v3_0/A EESPFAL_Sbox_0/EESPFAL_s0_0/EESPFAL_XOR_v3_0/A_bar.t6 CLK0.t18 CLK0.t17 sky130_fd_pr__pfet_01v8 ad=9e+11p pd=4.2e+06u as=0p ps=0u w=1.5e+06u l=150000u
X46 CLK1.t95 EESPFAL_Sbox_0/EESPFAL_s0_0/EESPFAL_NAND_v3_0/B EESPFAL_Sbox_0/EESPFAL_s0_0/EESPFAL_NAND_v3_0/B_bar CLK1.t94 sky130_fd_pr__pfet_01v8 ad=0p pd=0u as=9e+11p ps=4.2e+06u w=1.5e+06u l=150000u
X47 s2_bar.t4 s2.t7 GND.t340 GND.t339 sky130_fd_pr__nfet_01v8 ad=0p pd=0u as=0p ps=0u w=1.5e+06u l=150000u
X48 EESPFAL_Sbox_0/EESPFAL_s0_0/EESPFAL_NAND_v3_0/B EESPFAL_Sbox_0/EESPFAL_s0_0/EESPFAL_NAND_v3_0/B_bar CLK1.t56 CLK1.t55 sky130_fd_pr__pfet_01v8 ad=9e+11p pd=4.2e+06u as=0p ps=0u w=1.5e+06u l=150000u
X49 CLK1.t82 EESPFAL_Sbox_0/EESPFAL_s0_0/EESPFAL_NOR_v3_1/B_bar.t7 a_6136_n3993# GND.t41 sky130_fd_pr__nfet_01v8 ad=0p pd=0u as=9e+11p ps=4.2e+06u w=1.5e+06u l=150000u
X50 a_6137_2408# EESPFAL_Sbox_0/EESPFAL_s0_0/EESPFAL_XOR_v3_0/A_bar.t7 EESPFAL_Sbox_0/EESPFAL_s1_0/EESPFAL_INV4_2/A GND.t335 sky130_fd_pr__nfet_01v8 ad=9e+11p pd=4.2e+06u as=1.8e+12p ps=8.4e+06u w=1.5e+06u l=150000u
X51 a_10206_4548# EESPFAL_Sbox_0/EESPFAL_s1_0/EESPFAL_NAND_v3_1/B EESPFAL_Sbox_0/EESPFAL_s1_0/EESPFAL_NAND_v3_1/OUT GND.t34 sky130_fd_pr__nfet_01v8 ad=9e+11p pd=4.2e+06u as=1.8e+12p ps=8.4e+06u w=1.5e+06u l=150000u
X52 EESPFAL_Sbox_0/EESPFAL_s1_0/EESPFAL_INV4_2/A_bar Dis1.t3 GND.t264 GND.t263 sky130_fd_pr__nfet_01v8 ad=2.7e+12p pd=1.26e+07u as=0p ps=0u w=1.5e+06u l=150000u
X53 CLK2.t66 EESPFAL_Sbox_0/EESPFAL_s1_0/EESPFAL_NAND_v3_1/A.t7 a_10206_4548# GND.t208 sky130_fd_pr__nfet_01v8 ad=0p pd=0u as=0p ps=0u w=1.5e+06u l=150000u
X54 a_4576_n3993# EESPFAL_Sbox_0/EESPFAL_s0_0/EESPFAL_XOR_v3_0/B_bar.t6 EESPFAL_Sbox_0/EESPFAL_s3_0/EESPFAL_NAND_v3_1/A_bar.t2 GND.t75 sky130_fd_pr__nfet_01v8 ad=9e+11p pd=4.2e+06u as=0p ps=0u w=1.5e+06u l=150000u
X55 s3.t5 EESPFAL_Sbox_0/EESPFAL_s3_0/EESPFAL_NAND_v3_0/OUT CLK3.t25 GND.t283 sky130_fd_pr__nfet_01v8 ad=0p pd=0u as=0p ps=0u w=1.5e+06u l=150000u
X56 CLK1.t39 EESPFAL_Sbox_0/EESPFAL_s0_0/EESPFAL_NOR_v3_1/A_bar.t8 a_4576_n3313# GND.t49 sky130_fd_pr__nfet_01v8 ad=0p pd=0u as=9e+11p ps=4.2e+06u w=1.5e+06u l=150000u
X57 a_10206_n3313# EESPFAL_Sbox_0/EESPFAL_s3_0/EESPFAL_NAND_v3_0/B EESPFAL_Sbox_0/EESPFAL_s3_0/EESPFAL_NAND_v3_0/OUT GND.t6 sky130_fd_pr__nfet_01v8 ad=9e+11p pd=4.2e+06u as=0p ps=0u w=1.5e+06u l=150000u
X58 CLK1.t40 EESPFAL_Sbox_0/EESPFAL_s0_0/EESPFAL_NOR_v3_1/A_bar.t9 EESPFAL_Sbox_0/EESPFAL_s2_0/EESPFAL_NAND_v3_0/B GND.t15 sky130_fd_pr__nfet_01v8 ad=0p pd=0u as=1.8e+12p ps=8.4e+06u w=1.5e+06u l=150000u
X59 GND.t138 Dis1.t4 EESPFAL_Sbox_0/EESPFAL_s2_0/EESPFAL_NAND_v3_0/B GND.t119 sky130_fd_pr__nfet_01v8 ad=0p pd=0u as=0p ps=0u w=1.5e+06u l=150000u
X60 EESPFAL_Sbox_0/EESPFAL_s2_0/EESPFAL_NAND_v3_1/OUT_bar EESPFAL_Sbox_0/EESPFAL_s2_0/EESPFAL_NAND_v3_1/A_bar CLK2.t2 GND.t9 sky130_fd_pr__nfet_01v8 ad=2.7e+12p pd=1.26e+07u as=0p ps=0u w=1.5e+06u l=150000u
X61 EESPFAL_Sbox_0/EESPFAL_s2_0/EESPFAL_NAND_v3_0/A.t1 EESPFAL_Sbox_0/EESPFAL_s2_0/EESPFAL_NAND_v3_0/A_bar.t6 CLK1.t170 CLK1.t169 sky130_fd_pr__pfet_01v8 ad=0p pd=0u as=0p ps=0u w=1.5e+06u l=150000u
X62 EESPFAL_Sbox_0/EESPFAL_s1_0/EESPFAL_3in_NOR_v2_0/C.t3 EESPFAL_Sbox_0/EESPFAL_s1_0/EESPFAL_3in_NOR_v2_0/C_bar.t5 CLK2.t54 CLK2.t53 sky130_fd_pr__pfet_01v8 ad=0p pd=0u as=0p ps=0u w=1.5e+06u l=150000u
X63 EESPFAL_Sbox_0/EESPFAL_s3_0/EESPFAL_3in_NOR_v2_0/C.t2 EESPFAL_Sbox_0/EESPFAL_s3_0/EESPFAL_3in_NOR_v2_0/C_bar.t5 GND.t73 GND.t72 sky130_fd_pr__nfet_01v8 ad=0p pd=0u as=0p ps=0u w=1.5e+06u l=150000u
X64 EESPFAL_Sbox_0/EESPFAL_s3_0/EESPFAL_NAND_v3_0/A_bar.t2 EESPFAL_Sbox_0/EESPFAL_s0_0/EESPFAL_XOR_v3_0/A a_6436_n3313# GND.t133 sky130_fd_pr__nfet_01v8 ad=0p pd=0u as=9e+11p ps=4.2e+06u w=1.5e+06u l=150000u
X65 a_6436_n3993# EESPFAL_Sbox_0/EESPFAL_s0_0/EESPFAL_NOR_v3_1/B.t7 CLK1.t151 GND.t172 sky130_fd_pr__nfet_01v8 ad=9e+11p pd=4.2e+06u as=0p ps=0u w=1.5e+06u l=150000u
X66 CLK2.t103 EESPFAL_Sbox_0/EESPFAL_s1_0/EESPFAL_3in_NOR_v2_0/C_bar.t6 EESPFAL_Sbox_0/EESPFAL_s1_0/EESPFAL_3in_NOR_v2_0/C.t2 CLK2.t102 sky130_fd_pr__pfet_01v8 ad=0p pd=0u as=0p ps=0u w=1.5e+06u l=150000u
X67 EESPFAL_Sbox_0/EESPFAL_s1_0/EESPFAL_NAND_v3_1/A_bar.t2 EESPFAL_Sbox_0/EESPFAL_s1_0/EESPFAL_NAND_v3_1/A.t8 CLK1.t196 CLK1.t195 sky130_fd_pr__pfet_01v8 ad=0p pd=0u as=0p ps=0u w=1.5e+06u l=150000u
X68 CLK1.t164 EESPFAL_Sbox_0/EESPFAL_s0_0/EESPFAL_XOR_v3_0/B EESPFAL_Sbox_0/EESPFAL_s1_0/EESPFAL_NAND_v3_0/B GND.t219 sky130_fd_pr__nfet_01v8 ad=0p pd=0u as=1.8e+12p ps=8.4e+06u w=1.5e+06u l=150000u
X69 EESPFAL_Sbox_0/EESPFAL_s0_0/EESPFAL_NOR_v3_0/A EESPFAL_Sbox_0/EESPFAL_s0_0/EESPFAL_NOR_v3_0/A_bar GND.t296 GND.t260 sky130_fd_pr__nfet_01v8 ad=1.8e+12p pd=8.4e+06u as=0p ps=0u w=1.5e+06u l=150000u
X70 a_8456_7368# EESPFAL_Sbox_0/EESPFAL_s0_0/EESPFAL_NAND_v3_1/B EESPFAL_Sbox_0/EESPFAL_s0_0/EESPFAL_NOR_v3_0/B GND.t202 sky130_fd_pr__nfet_01v8 ad=9e+11p pd=4.2e+06u as=0p ps=0u w=1.5e+06u l=150000u
X71 a_1180_7368# k1_bar.t0 EESPFAL_Sbox_0/EESPFAL_s0_0/EESPFAL_NOR_v3_1/A_bar.t5 GND.t179 sky130_fd_pr__nfet_01v8 ad=9e+11p pd=4.2e+06u as=0p ps=0u w=1.5e+06u l=150000u
X72 CLK3.t16 s3_bar.t5 s3.t3 CLK3.t15 sky130_fd_pr__pfet_01v8 ad=0p pd=0u as=0p ps=0u w=1.5e+06u l=150000u
X73 CLK1.t104 EESPFAL_Sbox_0/EESPFAL_s3_0/EESPFAL_NAND_v3_0/A_bar.t6 EESPFAL_Sbox_0/EESPFAL_s3_0/EESPFAL_NAND_v3_0/A.t4 CLK1.t103 sky130_fd_pr__pfet_01v8 ad=0p pd=0u as=0p ps=0u w=1.5e+06u l=150000u
X74 EESPFAL_Sbox_0/EESPFAL_s0_0/EESPFAL_NOR_v3_0/B_bar Dis2.t4 GND.t236 GND.t223 sky130_fd_pr__nfet_01v8 ad=2.7e+12p pd=1.26e+07u as=0p ps=0u w=1.5e+06u l=150000u
X75 CLK3.t6 s1_bar.t5 s1.t3 CLK3.t5 sky130_fd_pr__pfet_01v8 ad=0p pd=0u as=0p ps=0u w=1.5e+06u l=150000u
X76 a_10265_n1173# EESPFAL_Sbox_0/EESPFAL_s2_0/EESPFAL_NAND_v3_0/B EESPFAL_Sbox_0/EESPFAL_s2_0/EESPFAL_NAND_v3_0/OUT GND.t100 sky130_fd_pr__nfet_01v8 ad=9e+11p pd=4.2e+06u as=0p ps=0u w=1.5e+06u l=150000u
X77 CLK3.t20 EESPFAL_Sbox_0/EESPFAL_s3_0/EESPFAL_NAND_v3_1/OUT s3.t4 GND.t273 sky130_fd_pr__nfet_01v8 ad=0p pd=0u as=0p ps=0u w=1.5e+06u l=150000u
X78 a_4876_n3313# EESPFAL_Sbox_0/EESPFAL_s0_0/EESPFAL_NOR_v3_1/A CLK1.t34 GND.t45 sky130_fd_pr__nfet_01v8 ad=9e+11p pd=4.2e+06u as=0p ps=0u w=1.5e+06u l=150000u
X79 CLK2.t8 EESPFAL_Sbox_0/EESPFAL_s3_0/EESPFAL_NAND_v3_0/A.t6 a_10206_n3313# GND.t63 sky130_fd_pr__nfet_01v8 ad=0p pd=0u as=0p ps=0u w=1.5e+06u l=150000u
X80 a_6136_8048# EESPFAL_Sbox_0/EESPFAL_s0_0/EESPFAL_XOR_v3_0/B_bar.t7 EESPFAL_Sbox_0/EESPFAL_s0_0/EESPFAL_NAND_v3_0/A.t0 GND.t218 sky130_fd_pr__nfet_01v8 ad=9e+11p pd=4.2e+06u as=0p ps=0u w=1.5e+06u l=150000u
X81 CLK0.t40 x1_bar.t0 a_1180_7368# GND.t187 sky130_fd_pr__nfet_01v8 ad=0p pd=0u as=0p ps=0u w=1.5e+06u l=150000u
X82 s1_bar.t3 s1.t7 CLK3.t14 CLK3.t13 sky130_fd_pr__pfet_01v8 ad=0p pd=0u as=0p ps=0u w=1.5e+06u l=150000u
X83 GND.t161 EESPFAL_Sbox_0/EESPFAL_s1_0/EESPFAL_NAND_v3_0/B EESPFAL_Sbox_0/EESPFAL_s1_0/EESPFAL_NAND_v3_0/B_bar GND.t13 sky130_fd_pr__nfet_01v8 ad=0p pd=0u as=1.8e+12p ps=8.4e+06u w=1.5e+06u l=150000u
X84 CLK2.t40 EESPFAL_Sbox_0/EESPFAL_s0_0/EESPFAL_NOR_v3_0/B_bar EESPFAL_Sbox_0/EESPFAL_s0_0/EESPFAL_NOR_v3_0/B CLK2.t39 sky130_fd_pr__pfet_01v8 ad=0p pd=0u as=9e+11p ps=4.2e+06u w=1.5e+06u l=150000u
X85 EESPFAL_Sbox_0/EESPFAL_s0_0/EESPFAL_NAND_v3_0/A_bar.t1 Dis1.t5 GND.t338 GND.t308 sky130_fd_pr__nfet_01v8 ad=0p pd=0u as=0p ps=0u w=1.5e+06u l=150000u
X86 CLK1.t7 EESPFAL_Sbox_0/EESPFAL_s3_0/EESPFAL_NAND_v3_0/B EESPFAL_Sbox_0/EESPFAL_s3_0/EESPFAL_NAND_v3_0/B_bar CLK1.t6 sky130_fd_pr__pfet_01v8 ad=0p pd=0u as=9e+11p ps=4.2e+06u w=1.5e+06u l=150000u
X87 CLK1.t44 EESPFAL_Sbox_0/EESPFAL_s2_0/EESPFAL_NAND_v3_0/A_bar.t7 EESPFAL_Sbox_0/EESPFAL_s2_0/EESPFAL_NAND_v3_0/A.t0 CLK1.t43 sky130_fd_pr__pfet_01v8 ad=0p pd=0u as=0p ps=0u w=1.5e+06u l=150000u
X88 CLK0.t29 EESPFAL_Sbox_0/EESPFAL_s0_0/EESPFAL_NOR_v3_1/B_bar.t8 EESPFAL_Sbox_0/EESPFAL_s0_0/EESPFAL_NOR_v3_1/B.t1 CLK0.t4 sky130_fd_pr__pfet_01v8 ad=0p pd=0u as=0p ps=0u w=1.5e+06u l=150000u
X89 EESPFAL_Sbox_0/EESPFAL_s0_0/EESPFAL_XOR_v3_0/A k0.t0 a_3040_8048# GND.t50 sky130_fd_pr__nfet_01v8 ad=2.7e+12p pd=1.26e+07u as=9e+11p ps=4.2e+06u w=1.5e+06u l=150000u
X90 a_4576_8048# EESPFAL_Sbox_0/EESPFAL_s0_0/EESPFAL_XOR_v3_0/B_bar.t8 EESPFAL_Sbox_0/EESPFAL_s0_0/EESPFAL_NAND_v3_0/A_bar.t0 GND.t180 sky130_fd_pr__nfet_01v8 ad=9e+11p pd=4.2e+06u as=0p ps=0u w=1.5e+06u l=150000u
X91 EESPFAL_Sbox_0/EESPFAL_s1_0/EESPFAL_NAND_v3_0/B EESPFAL_Sbox_0/EESPFAL_s1_0/EESPFAL_NAND_v3_0/B_bar GND.t3 GND.t2 sky130_fd_pr__nfet_01v8 ad=0p pd=0u as=0p ps=0u w=1.5e+06u l=150000u
X92 GND.t238 Dis2.t5 EESPFAL_Sbox_0/EESPFAL_s3_0/EESPFAL_3in_NOR_v2_0/C.t0 GND.t237 sky130_fd_pr__nfet_01v8 ad=0p pd=0u as=0p ps=0u w=1.5e+06u l=150000u
X93 GND.t215 Dis0.t0 EESPFAL_Sbox_0/EESPFAL_s0_0/EESPFAL_XOR_v3_0/A GND.t168 sky130_fd_pr__nfet_01v8 ad=0p pd=0u as=0p ps=0u w=1.5e+06u l=150000u
X94 a_10476_7368# EESPFAL_Sbox_0/EESPFAL_s0_0/EESPFAL_NOR_v3_0/B_bar s0_bar.t1 GND.t184 sky130_fd_pr__nfet_01v8 ad=9e+11p pd=4.2e+06u as=0p ps=0u w=1.5e+06u l=150000u
X95 EESPFAL_Sbox_0/EESPFAL_s0_0/EESPFAL_NOR_v3_1/B_bar.t2 EESPFAL_Sbox_0/EESPFAL_s0_0/EESPFAL_NOR_v3_1/B.t8 CLK0.t25 CLK0.t24 sky130_fd_pr__pfet_01v8 ad=0p pd=0u as=0p ps=0u w=1.5e+06u l=150000u
X96 s3_bar.t2 s3.t7 CLK3.t32 CLK3.t31 sky130_fd_pr__pfet_01v8 ad=0p pd=0u as=0p ps=0u w=1.5e+06u l=150000u
X97 EESPFAL_Sbox_0/EESPFAL_s3_0/EESPFAL_NAND_v3_0/A_bar.t4 EESPFAL_Sbox_0/EESPFAL_s3_0/EESPFAL_NAND_v3_0/A.t7 CLK1.t136 CLK1.t135 sky130_fd_pr__pfet_01v8 ad=0p pd=0u as=0p ps=0u w=1.5e+06u l=150000u
X98 EESPFAL_Sbox_0/EESPFAL_s2_0/EESPFAL_NAND_v3_1/A_bar EESPFAL_Sbox_0/EESPFAL_s0_0/EESPFAL_XOR_v3_0/A a_4916_n493# GND.t132 sky130_fd_pr__nfet_01v8 ad=2.7e+12p pd=1.26e+07u as=9e+11p ps=4.2e+06u w=1.5e+06u l=150000u
X99 EESPFAL_Sbox_0/EESPFAL_s2_0/EESPFAL_INV4_1/A_bar EESPFAL_Sbox_0/EESPFAL_s2_0/EESPFAL_INV4_1/A CLK1.t121 CLK1.t77 sky130_fd_pr__pfet_01v8 ad=9e+11p pd=4.2e+06u as=0p ps=0u w=1.5e+06u l=150000u
X100 CLK2.t23 EESPFAL_Sbox_0/EESPFAL_s2_0/EESPFAL_NAND_v3_1/OUT EESPFAL_Sbox_0/EESPFAL_s2_0/EESPFAL_NAND_v3_1/OUT_bar CLK2.t22 sky130_fd_pr__pfet_01v8 ad=0p pd=0u as=9e+11p ps=4.2e+06u w=1.5e+06u l=150000u
X101 EESPFAL_Sbox_0/EESPFAL_s2_0/EESPFAL_NAND_v3_1/A_bar EESPFAL_Sbox_0/EESPFAL_s2_0/EESPFAL_NAND_v3_1/A CLK1.t78 CLK1.t77 sky130_fd_pr__pfet_01v8 ad=9e+11p pd=4.2e+06u as=0p ps=0u w=1.5e+06u l=150000u
X102 s2.t3 EESPFAL_Sbox_0/EESPFAL_s2_0/EESPFAL_NAND_v3_0/OUT CLK3.t11 GND.t166 sky130_fd_pr__nfet_01v8 ad=0p pd=0u as=0p ps=0u w=1.5e+06u l=150000u
X103 GND.t329 Dis1.t6 EESPFAL_Sbox_0/EESPFAL_s3_0/EESPFAL_NAND_v3_1/A.t5 GND.t91 sky130_fd_pr__nfet_01v8 ad=0p pd=0u as=0p ps=0u w=1.5e+06u l=150000u
X104 GND.t222 Dis1.t7 EESPFAL_Sbox_0/EESPFAL_s0_0/EESPFAL_NAND_v3_1/B GND.t83 sky130_fd_pr__nfet_01v8 ad=0p pd=0u as=1.8e+12p ps=8.4e+06u w=1.5e+06u l=150000u
X105 EESPFAL_Sbox_0/EESPFAL_s3_0/EESPFAL_NAND_v3_0/B EESPFAL_Sbox_0/EESPFAL_s3_0/EESPFAL_NAND_v3_0/B_bar CLK1.t158 CLK1.t157 sky130_fd_pr__pfet_01v8 ad=9e+11p pd=4.2e+06u as=0p ps=0u w=1.5e+06u l=150000u
X106 EESPFAL_Sbox_0/EESPFAL_s0_0/EESPFAL_NOR_v3_1/B_bar.t0 k2.t0 a_3040_5688# GND.t101 sky130_fd_pr__nfet_01v8 ad=0p pd=0u as=9e+11p ps=4.2e+06u w=1.5e+06u l=150000u
X107 EESPFAL_Sbox_0/EESPFAL_s0_0/EESPFAL_NAND_v3_1/B_bar EESPFAL_Sbox_0/EESPFAL_s0_0/EESPFAL_NOR_v3_1/B.t9 CLK1.t150 GND.t284 sky130_fd_pr__nfet_01v8 ad=2.7e+12p pd=1.26e+07u as=0p ps=0u w=1.5e+06u l=150000u
X108 GND.t62 Dis1.t8 EESPFAL_Sbox_0/EESPFAL_s3_0/EESPFAL_NAND_v3_1/B GND.t61 sky130_fd_pr__nfet_01v8 ad=0p pd=0u as=0p ps=0u w=1.5e+06u l=150000u
X109 GND.t120 Dis1.t9 EESPFAL_Sbox_0/EESPFAL_s2_0/EESPFAL_NAND_v3_1/B GND.t119 sky130_fd_pr__nfet_01v8 ad=0p pd=0u as=1.8e+12p ps=8.4e+06u w=1.5e+06u l=150000u
X110 GND.t280 Dis0.t1 EESPFAL_Sbox_0/EESPFAL_s0_0/EESPFAL_NOR_v3_1/B_bar.t3 GND.t266 sky130_fd_pr__nfet_01v8 ad=0p pd=0u as=0p ps=0u w=1.5e+06u l=150000u
X111 EESPFAL_Sbox_0/EESPFAL_s2_0/EESPFAL_NAND_v3_0/B EESPFAL_Sbox_0/EESPFAL_s2_0/EESPFAL_NAND_v3_0/B_bar GND.t227 GND.t226 sky130_fd_pr__nfet_01v8 ad=0p pd=0u as=0p ps=0u w=1.5e+06u l=150000u
X112 EESPFAL_Sbox_0/EESPFAL_s3_0/EESPFAL_NAND_v3_1/OUT_bar EESPFAL_Sbox_0/EESPFAL_s3_0/EESPFAL_NAND_v3_1/OUT CLK2.t70 CLK2.t69 sky130_fd_pr__pfet_01v8 ad=9e+11p pd=4.2e+06u as=0p ps=0u w=1.5e+06u l=150000u
X113 EESPFAL_Sbox_0/EESPFAL_s2_0/EESPFAL_NAND_v3_1/B_bar EESPFAL_Sbox_0/EESPFAL_s0_0/EESPFAL_NOR_v3_1/B_bar.t9 CLK1.t122 GND.t40 sky130_fd_pr__nfet_01v8 ad=1.8e+12p pd=8.4e+06u as=0p ps=0u w=1.5e+06u l=150000u
X114 EESPFAL_Sbox_0/EESPFAL_s2_0/EESPFAL_NAND_v3_0/OUT EESPFAL_Sbox_0/EESPFAL_s2_0/EESPFAL_NAND_v3_0/OUT_bar.t7 CLK2.t114 CLK2.t113 sky130_fd_pr__pfet_01v8 ad=9e+11p pd=4.2e+06u as=0p ps=0u w=1.5e+06u l=150000u
X115 CLK1.t108 EESPFAL_Sbox_0/EESPFAL_s1_0/EESPFAL_NAND_v3_0/A.t6 EESPFAL_Sbox_0/EESPFAL_s1_0/EESPFAL_NAND_v3_0/A_bar.t4 CLK1.t107 sky130_fd_pr__pfet_01v8 ad=0p pd=0u as=0p ps=0u w=1.5e+06u l=150000u
X116 EESPFAL_Sbox_0/EESPFAL_s1_0/EESPFAL_NAND_v3_0/OUT_bar.t4 EESPFAL_Sbox_0/EESPFAL_s1_0/EESPFAL_NAND_v3_0/OUT CLK2.t31 CLK2.t30 sky130_fd_pr__pfet_01v8 ad=0p pd=0u as=0p ps=0u w=1.5e+06u l=150000u
X117 EESPFAL_Sbox_0/EESPFAL_s2_0/EESPFAL_3in_NOR_v2_0/C_bar.t3 EESPFAL_Sbox_0/EESPFAL_s2_0/EESPFAL_3in_NOR_v2_0/C.t5 CLK2.t89 CLK2.t88 sky130_fd_pr__pfet_01v8 ad=0p pd=0u as=0p ps=0u w=1.5e+06u l=150000u
X118 GND.t307 EESPFAL_Sbox_0/EESPFAL_s0_0/EESPFAL_XOR_v3_0/B EESPFAL_Sbox_0/EESPFAL_s0_0/EESPFAL_XOR_v3_0/B_bar.t4 GND.t220 sky130_fd_pr__nfet_01v8 ad=0p pd=0u as=0p ps=0u w=1.5e+06u l=150000u
X119 CLK2.t29 EESPFAL_Sbox_0/EESPFAL_s1_0/EESPFAL_NAND_v3_0/OUT EESPFAL_Sbox_0/EESPFAL_s1_0/EESPFAL_NAND_v3_0/OUT_bar.t3 CLK2.t28 sky130_fd_pr__pfet_01v8 ad=0p pd=0u as=0p ps=0u w=1.5e+06u l=150000u
X120 CLK2.t68 EESPFAL_Sbox_0/EESPFAL_s3_0/EESPFAL_NAND_v3_1/OUT EESPFAL_Sbox_0/EESPFAL_s3_0/EESPFAL_NAND_v3_1/OUT_bar CLK2.t67 sky130_fd_pr__pfet_01v8 ad=0p pd=0u as=0p ps=0u w=1.5e+06u l=150000u
X121 CLK2.t81 EESPFAL_Sbox_0/EESPFAL_s2_0/EESPFAL_3in_NOR_v2_0/C.t6 EESPFAL_Sbox_0/EESPFAL_s2_0/EESPFAL_3in_NOR_v2_0/C_bar.t2 CLK2.t80 sky130_fd_pr__pfet_01v8 ad=0p pd=0u as=0p ps=0u w=1.5e+06u l=150000u
X122 a_3040_5008# x3_bar.t1 CLK0.t34 GND.t57 sky130_fd_pr__nfet_01v8 ad=9e+11p pd=4.2e+06u as=0p ps=0u w=1.5e+06u l=150000u
X123 EESPFAL_Sbox_0/EESPFAL_s2_0/EESPFAL_NAND_v3_1/B_bar EESPFAL_Sbox_0/EESPFAL_s2_0/EESPFAL_NAND_v3_1/B CLK1.t182 CLK1.t181 sky130_fd_pr__pfet_01v8 ad=9e+11p pd=4.2e+06u as=0p ps=0u w=1.5e+06u l=150000u
X124 EESPFAL_Sbox_0/EESPFAL_s0_0/EESPFAL_XOR_v3_0/B EESPFAL_Sbox_0/EESPFAL_s0_0/EESPFAL_XOR_v3_0/B_bar.t9 GND.t182 GND.t181 sky130_fd_pr__nfet_01v8 ad=2.7e+12p pd=1.26e+07u as=0p ps=0u w=1.5e+06u l=150000u
X125 CLK2.t112 EESPFAL_Sbox_0/EESPFAL_s2_0/EESPFAL_NAND_v3_0/OUT_bar.t8 EESPFAL_Sbox_0/EESPFAL_s2_0/EESPFAL_NAND_v3_0/OUT CLK2.t111 sky130_fd_pr__pfet_01v8 ad=0p pd=0u as=0p ps=0u w=1.5e+06u l=150000u
X126 a_1480_5008# x3.t0 CLK0.t9 GND.t55 sky130_fd_pr__nfet_01v8 ad=9e+11p pd=4.2e+06u as=0p ps=0u w=1.5e+06u l=150000u
X127 s2.t5 s2_bar.t6 CLK3.t24 CLK3.t23 sky130_fd_pr__pfet_01v8 ad=0p pd=0u as=0p ps=0u w=1.5e+06u l=150000u
X128 a_6136_5228# EESPFAL_Sbox_0/EESPFAL_s0_0/EESPFAL_XOR_v3_0/A_bar.t8 EESPFAL_Sbox_0/EESPFAL_s1_0/EESPFAL_NAND_v3_0/A_bar.t0 GND.t60 sky130_fd_pr__nfet_01v8 ad=9e+11p pd=4.2e+06u as=0p ps=0u w=1.5e+06u l=150000u
X129 EESPFAL_Sbox_0/EESPFAL_s0_0/EESPFAL_XOR_v3_0/B_bar.t1 k3.t0 a_1480_5008# GND.t173 sky130_fd_pr__nfet_01v8 ad=0p pd=0u as=0p ps=0u w=1.5e+06u l=150000u
X130 EESPFAL_Sbox_0/EESPFAL_s1_0/EESPFAL_NAND_v3_0/A.t1 Dis1.t10 GND.t23 GND.t22 sky130_fd_pr__nfet_01v8 ad=0p pd=0u as=0p ps=0u w=1.5e+06u l=150000u
X131 a_7196_8048# EESPFAL_Sbox_0/EESPFAL_s0_0/EESPFAL_NOR_v3_1/A_bar.t10 CLK1.t177 GND.t164 sky130_fd_pr__nfet_01v8 ad=9e+11p pd=4.2e+06u as=0p ps=0u w=1.5e+06u l=150000u
X132 EESPFAL_Sbox_0/EESPFAL_s1_0/EESPFAL_NAND_v3_1/B EESPFAL_Sbox_0/EESPFAL_s0_0/EESPFAL_NOR_v3_1/B.t10 CLK1.t99 GND.t195 sky130_fd_pr__nfet_01v8 ad=1.8e+12p pd=8.4e+06u as=0p ps=0u w=1.5e+06u l=150000u
X133 a_4576_5228# EESPFAL_Sbox_0/EESPFAL_s0_0/EESPFAL_XOR_v3_0/A_bar.t9 EESPFAL_Sbox_0/EESPFAL_s1_0/EESPFAL_NAND_v3_0/A.t0 GND.t194 sky130_fd_pr__nfet_01v8 ad=9e+11p pd=4.2e+06u as=0p ps=0u w=1.5e+06u l=150000u
X134 EESPFAL_Sbox_0/EESPFAL_s0_0/EESPFAL_NAND_v3_0/B_bar EESPFAL_Sbox_0/EESPFAL_s0_0/EESPFAL_NOR_v3_1/B_bar.t10 a_7196_8048# GND.t289 sky130_fd_pr__nfet_01v8 ad=1.8e+12p pd=8.4e+06u as=0p ps=0u w=1.5e+06u l=150000u
X135 EESPFAL_Sbox_0/EESPFAL_s2_0/EESPFAL_INV4_1/A EESPFAL_Sbox_0/EESPFAL_s2_0/EESPFAL_INV4_1/A_bar CLK1.t52 CLK1.t8 sky130_fd_pr__pfet_01v8 ad=9e+11p pd=4.2e+06u as=0p ps=0u w=1.5e+06u l=150000u
X136 EESPFAL_Sbox_0/EESPFAL_s3_0/EESPFAL_NAND_v3_0/OUT_bar.t1 Dis2.t6 GND.t245 GND.t148 sky130_fd_pr__nfet_01v8 ad=0p pd=0u as=0p ps=0u w=1.5e+06u l=150000u
X137 EESPFAL_Sbox_0/EESPFAL_s3_0/EESPFAL_NAND_v3_0/OUT_bar.t0 EESPFAL_Sbox_0/EESPFAL_s3_0/EESPFAL_NAND_v3_0/A_bar.t7 CLK2.t52 GND.t77 sky130_fd_pr__nfet_01v8 ad=0p pd=0u as=0p ps=0u w=1.5e+06u l=150000u
X138 CLK1.t165 EESPFAL_Sbox_0/EESPFAL_s0_0/EESPFAL_XOR_v3_0/B a_6176_n1173# GND.t38 sky130_fd_pr__nfet_01v8 ad=0p pd=0u as=9e+11p ps=4.2e+06u w=1.5e+06u l=150000u
X139 EESPFAL_Sbox_0/EESPFAL_s1_0/EESPFAL_NAND_v3_1/A.t4 EESPFAL_Sbox_0/EESPFAL_s0_0/EESPFAL_XOR_v3_0/B a_6436_4548# GND.t128 sky130_fd_pr__nfet_01v8 ad=0p pd=0u as=0p ps=0u w=1.5e+06u l=150000u
X140 EESPFAL_Sbox_0/EESPFAL_s0_0/EESPFAL_NOR_v3_0/B_bar EESPFAL_Sbox_0/EESPFAL_s0_0/EESPFAL_NOR_v3_0/B CLK2.t79 CLK2.t78 sky130_fd_pr__pfet_01v8 ad=9e+11p pd=4.2e+06u as=0p ps=0u w=1.5e+06u l=150000u
X141 GND.t68 Dis1.t11 EESPFAL_Sbox_0/EESPFAL_s1_0/EESPFAL_NAND_v3_1/A.t1 GND.t67 sky130_fd_pr__nfet_01v8 ad=0p pd=0u as=0p ps=0u w=1.5e+06u l=150000u
X142 a_2740_8048# k0_bar.t0 EESPFAL_Sbox_0/EESPFAL_s0_0/EESPFAL_XOR_v3_0/A GND.t56 sky130_fd_pr__nfet_01v8 ad=9e+11p pd=4.2e+06u as=0p ps=0u w=1.5e+06u l=150000u
X143 CLK3.t8 EESPFAL_Sbox_0/EESPFAL_s3_0/EESPFAL_NAND_v3_0/OUT_bar.t7 a_10377_n6134# GND.t111 sky130_fd_pr__nfet_01v8 ad=0p pd=0u as=9e+11p ps=4.2e+06u w=1.5e+06u l=150000u
X144 a_4616_n1173# EESPFAL_Sbox_0/EESPFAL_s0_0/EESPFAL_NOR_v3_1/B.t11 EESPFAL_Sbox_0/EESPFAL_s2_0/EESPFAL_NAND_v3_0/A.t5 GND.t139 sky130_fd_pr__nfet_01v8 ad=9e+11p pd=4.2e+06u as=0p ps=0u w=1.5e+06u l=150000u
X145 EESPFAL_Sbox_0/EESPFAL_s1_0/EESPFAL_NAND_v3_1/A_bar.t4 EESPFAL_Sbox_0/EESPFAL_s0_0/EESPFAL_XOR_v3_0/B a_4876_4548# GND.t127 sky130_fd_pr__nfet_01v8 ad=0p pd=0u as=0p ps=0u w=1.5e+06u l=150000u
X146 EESPFAL_Sbox_0/EESPFAL_s0_0/EESPFAL_XOR_v3_0/A_bar.t5 Dis0.t2 GND.t352 GND.t102 sky130_fd_pr__nfet_01v8 ad=0p pd=0u as=0p ps=0u w=1.5e+06u l=150000u
X147 GND.t246 Dis2.t7 EESPFAL_Sbox_0/EESPFAL_s0_0/EESPFAL_NOR_v3_0/A GND.t211 sky130_fd_pr__nfet_01v8 ad=0p pd=0u as=0p ps=0u w=1.5e+06u l=150000u
X148 a_10265_n493# EESPFAL_Sbox_0/EESPFAL_s2_0/EESPFAL_NAND_v3_1/B EESPFAL_Sbox_0/EESPFAL_s2_0/EESPFAL_NAND_v3_1/OUT GND.t100 sky130_fd_pr__nfet_01v8 ad=9e+11p pd=4.2e+06u as=1.8e+12p ps=8.4e+06u w=1.5e+06u l=150000u
X149 EESPFAL_Sbox_0/EESPFAL_s1_0/EESPFAL_NAND_v3_1/OUT_bar Dis2.t8 GND.t144 GND.t143 sky130_fd_pr__nfet_01v8 ad=2.7e+12p pd=1.26e+07u as=0p ps=0u w=1.5e+06u l=150000u
X150 CLK1.t26 EESPFAL_Sbox_0/EESPFAL_s1_0/EESPFAL_NAND_v3_1/B EESPFAL_Sbox_0/EESPFAL_s1_0/EESPFAL_NAND_v3_1/B_bar CLK1.t25 sky130_fd_pr__pfet_01v8 ad=0p pd=0u as=0p ps=0u w=1.5e+06u l=150000u
X151 CLK1.t117 EESPFAL_Sbox_0/EESPFAL_s2_0/EESPFAL_NAND_v3_0/B_bar EESPFAL_Sbox_0/EESPFAL_s2_0/EESPFAL_NAND_v3_0/B CLK1.t116 sky130_fd_pr__pfet_01v8 ad=0p pd=0u as=9e+11p ps=4.2e+06u w=1.5e+06u l=150000u
X152 EESPFAL_Sbox_0/EESPFAL_s2_0/EESPFAL_NAND_v3_0/OUT_bar.t0 Dis2.t9 GND.t146 GND.t145 sky130_fd_pr__nfet_01v8 ad=0p pd=0u as=0p ps=0u w=1.5e+06u l=150000u
X153 EESPFAL_Sbox_0/EESPFAL_s2_0/EESPFAL_NAND_v3_0/OUT_bar.t1 EESPFAL_Sbox_0/EESPFAL_s2_0/EESPFAL_NAND_v3_0/A_bar.t8 CLK2.t1 GND.t9 sky130_fd_pr__nfet_01v8 ad=0p pd=0u as=0p ps=0u w=1.5e+06u l=150000u
X154 GND.t349 EESPFAL_Sbox_0/EESPFAL_s1_0/EESPFAL_NAND_v3_1/OUT EESPFAL_Sbox_0/EESPFAL_s1_0/EESPFAL_NAND_v3_1/OUT_bar GND.t158 sky130_fd_pr__nfet_01v8 ad=0p pd=0u as=0p ps=0u w=1.5e+06u l=150000u
X155 GND.t282 EESPFAL_Sbox_0/EESPFAL_s3_0/EESPFAL_NAND_v3_0/OUT EESPFAL_Sbox_0/EESPFAL_s3_0/EESPFAL_NAND_v3_0/OUT_bar.t3 GND.t274 sky130_fd_pr__nfet_01v8 ad=0p pd=0u as=0p ps=0u w=1.5e+06u l=150000u
X156 a_6137_n6133# EESPFAL_Sbox_0/EESPFAL_s0_0/EESPFAL_XOR_v3_0/B EESPFAL_Sbox_0/EESPFAL_s3_0/EESPFAL_INV4_2/A GND.t306 sky130_fd_pr__nfet_01v8 ad=0p pd=0u as=0p ps=0u w=1.5e+06u l=150000u
X157 EESPFAL_Sbox_0/EESPFAL_s1_0/EESPFAL_NAND_v3_0/B_bar EESPFAL_Sbox_0/EESPFAL_s1_0/EESPFAL_NAND_v3_0/B CLK1.t86 CLK1.t85 sky130_fd_pr__pfet_01v8 ad=9e+11p pd=4.2e+06u as=0p ps=0u w=1.5e+06u l=150000u
X158 a_6476_n1173# EESPFAL_Sbox_0/EESPFAL_s0_0/EESPFAL_XOR_v3_0/B_bar.t10 CLK1.t96 GND.t80 sky130_fd_pr__nfet_01v8 ad=0p pd=0u as=0p ps=0u w=1.5e+06u l=150000u
X159 a_2740_5688# k2_bar.t0 EESPFAL_Sbox_0/EESPFAL_s0_0/EESPFAL_NOR_v3_1/B_bar.t5 GND.t178 sky130_fd_pr__nfet_01v8 ad=9e+11p pd=4.2e+06u as=0p ps=0u w=1.5e+06u l=150000u
X160 EESPFAL_Sbox_0/EESPFAL_s0_0/EESPFAL_NOR_v3_0/A EESPFAL_Sbox_0/EESPFAL_s0_0/EESPFAL_NOR_v3_0/A_bar CLK2.t86 CLK2.t85 sky130_fd_pr__pfet_01v8 ad=9e+11p pd=4.2e+06u as=0p ps=0u w=1.5e+06u l=150000u
X161 CLK1.t88 EESPFAL_Sbox_0/EESPFAL_s0_0/EESPFAL_NAND_v3_1/B_bar EESPFAL_Sbox_0/EESPFAL_s0_0/EESPFAL_NAND_v3_1/B CLK1.t87 sky130_fd_pr__pfet_01v8 ad=0p pd=0u as=0p ps=0u w=1.5e+06u l=150000u
X162 CLK2.t4 EESPFAL_Sbox_0/EESPFAL_s1_0/EESPFAL_NAND_v3_1/B_bar EESPFAL_Sbox_0/EESPFAL_s1_0/EESPFAL_NAND_v3_1/OUT_bar GND.t1 sky130_fd_pr__nfet_01v8 ad=0p pd=0u as=0p ps=0u w=1.5e+06u l=150000u
X163 EESPFAL_Sbox_0/EESPFAL_s0_0/EESPFAL_NOR_v3_1/B.t3 Dis0.t3 GND.t214 GND.t136 sky130_fd_pr__nfet_01v8 ad=0p pd=0u as=0p ps=0u w=1.5e+06u l=150000u
X164 CLK1.t97 EESPFAL_Sbox_0/EESPFAL_s0_0/EESPFAL_XOR_v3_0/B_bar.t11 a_4616_n1173# GND.t190 sky130_fd_pr__nfet_01v8 ad=0p pd=0u as=0p ps=0u w=1.5e+06u l=150000u