* NGSPICE file created from EESPFAL_Sbox_flat.ext - technology: sky130A

.subckt EESPFAL_Sbox_flat GND x0 x0_bar x1 x1_bar x2 x2_bar x3 x3_bar Dis1 Dis2 Dis3
+ s0 s0_bar s1_bar s1 s2 s2_bar s3_bar s3 CLK1 CLK2 CLK3
X0 CLK2.t52 EESPFAL_s1_0/EESPFAL_3in_NOR_v2_0/C.t5 EESPFAL_s1_0/EESPFAL_3in_NOR_v2_0/C_bar.t3 CLK2.t51 sky130_fd_pr__pfet_01v8 ad=0p pd=0u as=0p ps=0u w=1.5e+06u l=150000u
X1 EESPFAL_s1_0/EESPFAL_NAND_v3_1/B Dis1.t0 GND.t229 GND.t204 sky130_fd_pr__nfet_01v8 ad=1.8e+12p pd=8.4e+06u as=0p ps=0u w=1.5e+06u l=150000u
X2 CLK2.t21 EESPFAL_s3_0/EESPFAL_NAND_v3_1/B_bar EESPFAL_s3_0/EESPFAL_NAND_v3_1/OUT_bar GND.t97 sky130_fd_pr__nfet_01v8 ad=0p pd=0u as=2.7e+12p ps=1.26e+07u w=1.5e+06u l=150000u
X3 GND.t309 EESPFAL_s3_0/EESPFAL_NAND_v3_0/OUT EESPFAL_s3_0/EESPFAL_NAND_v3_0/OUT_bar.t3 GND.t85 sky130_fd_pr__nfet_01v8 ad=0p pd=0u as=0p ps=0u w=1.5e+06u l=150000u
X4 CLK1.t56 x1.t0 EESPFAL_s3_0/EESPFAL_NAND_v3_1/B GND.t163 sky130_fd_pr__nfet_01v8 ad=0p pd=0u as=1.8e+12p ps=8.4e+06u w=1.5e+06u l=150000u
X5 CLK1.t151 EESPFAL_s1_0/EESPFAL_NAND_v3_0/A_bar.t6 EESPFAL_s1_0/EESPFAL_NAND_v3_0/A.t5 CLK1.t150 sky130_fd_pr__pfet_01v8 ad=0p pd=0u as=0p ps=0u w=1.5e+06u l=150000u
X6 a_1170_n10570# x3_bar.t0 EESPFAL_s3_0/EESPFAL_NAND_v3_1/A_bar.t0 GND.t162 sky130_fd_pr__nfet_01v8 ad=9e+11p pd=4.2e+06u as=0p ps=0u w=1.5e+06u l=150000u
X7 EESPFAL_s3_0/EESPFAL_NAND_v3_1/A_bar.t4 Dis1.t1 GND.t228 GND.t187 sky130_fd_pr__nfet_01v8 ad=0p pd=0u as=0p ps=0u w=1.5e+06u l=150000u
X8 EESPFAL_s2_0/EESPFAL_NAND_v3_1/OUT_bar.t3 Dis2.t0 GND.t149 GND.t148 sky130_fd_pr__nfet_01v8 ad=0p pd=0u as=0p ps=0u w=1.5e+06u l=150000u
X9 CLK2.t30 EESPFAL_s2_0/EESPFAL_NAND_v3_0/A a_6859_n7070# GND.t121 sky130_fd_pr__nfet_01v8 ad=0p pd=0u as=9e+11p ps=4.2e+06u w=1.5e+06u l=150000u
X10 EESPFAL_s2_0/EESPFAL_NAND_v3_0/A x0.t0 a_3070_n7070# GND.t59 sky130_fd_pr__nfet_01v8 ad=2.7e+12p pd=1.26e+07u as=9e+11p ps=4.2e+06u w=1.5e+06u l=150000u
X11 EESPFAL_s1_0/EESPFAL_NAND_v3_0/A_bar.t0 EESPFAL_s1_0/EESPFAL_NAND_v3_0/A.t6 CLK1.t42 CLK1.t41 sky130_fd_pr__pfet_01v8 ad=0p pd=0u as=0p ps=0u w=1.5e+06u l=150000u
X12 GND.t86 EESPFAL_s3_0/EESPFAL_NAND_v3_1/OUT EESPFAL_s3_0/EESPFAL_NAND_v3_1/OUT_bar GND.t85 sky130_fd_pr__nfet_01v8 ad=0p pd=0u as=0p ps=0u w=1.5e+06u l=150000u
X13 a_1510_n7070# x1.t1 CLK1.t55 GND.t161 sky130_fd_pr__nfet_01v8 ad=9e+11p pd=4.2e+06u as=0p ps=0u w=1.5e+06u l=150000u
X14 CLK3.t27 s0.t6 s0_bar.t3 CLK3.t26 sky130_fd_pr__pfet_01v8 ad=0p pd=0u as=0p ps=0u w=1.5e+06u l=150000u
X15 CLK2.t91 EESPFAL_s3_0/EESPFAL_NAND_v3_1/A.t6 a_6800_n10570# GND.t140 sky130_fd_pr__nfet_01v8 ad=0p pd=0u as=9e+11p ps=4.2e+06u w=1.5e+06u l=150000u
X16 CLK1.t101 x1_bar.t0 a_1170_n2029# GND.t91 sky130_fd_pr__nfet_01v8 ad=0p pd=0u as=9e+11p ps=4.2e+06u w=1.5e+06u l=150000u
X17 CLK3.t17 s2_bar.t5 s2.t3 CLK3.t16 sky130_fd_pr__pfet_01v8 ad=0p pd=0u as=0p ps=0u w=1.5e+06u l=150000u
X18 CLK3.t42 s1.t7 s1_bar.t3 CLK3.t41 sky130_fd_pr__pfet_01v8 ad=0p pd=0u as=0p ps=0u w=1.5e+06u l=150000u
X19 EESPFAL_s2_0/EESPFAL_NAND_v3_1/B_bar x1.t2 CLK1.t58 GND.t39 sky130_fd_pr__nfet_01v8 ad=1.8e+12p pd=8.4e+06u as=0p ps=0u w=1.5e+06u l=150000u
X20 EESPFAL_s1_0/EESPFAL_NAND_v3_1/A.t0 x3.t0 a_3030_n2029# GND.t164 sky130_fd_pr__nfet_01v8 ad=0p pd=0u as=9e+11p ps=4.2e+06u w=1.5e+06u l=150000u
X21 EESPFAL_s0_0/EESPFAL_NAND_v3_1/B EESPFAL_s0_0/EESPFAL_NAND_v3_1/B_bar GND.t254 GND.t132 sky130_fd_pr__nfet_01v8 ad=1.8e+12p pd=8.4e+06u as=0p ps=0u w=1.5e+06u l=150000u
X22 EESPFAL_s0_0/EESPFAL_NOR_v3_0/B_bar Dis2.t1 GND.t151 GND.t150 sky130_fd_pr__nfet_01v8 ad=2.7e+12p pd=1.26e+07u as=0p ps=0u w=1.5e+06u l=150000u
X23 s0.t0 Dis3.t0 GND.t31 GND.t30 sky130_fd_pr__nfet_01v8 ad=0p pd=0u as=0p ps=0u w=1.5e+06u l=150000u
X24 EESPFAL_s3_0/EESPFAL_NAND_v3_1/B EESPFAL_s3_0/EESPFAL_NAND_v3_1/B_bar CLK1.t79 CLK1.t78 sky130_fd_pr__pfet_01v8 ad=9e+11p pd=4.2e+06u as=0p ps=0u w=1.5e+06u l=150000u
X25 EESPFAL_s2_0/EESPFAL_NAND_v3_0/A_bar Dis1.t2 GND.t226 GND.t200 sky130_fd_pr__nfet_01v8 ad=2.7e+12p pd=1.26e+07u as=0p ps=0u w=1.5e+06u l=150000u
X26 EESPFAL_s2_0/EESPFAL_NAND_v3_0/A_bar x0.t1 a_1510_n7070# GND.t63 sky130_fd_pr__nfet_01v8 ad=0p pd=0u as=0p ps=0u w=1.5e+06u l=150000u
X27 a_1470_n2029# x1.t3 CLK1.t62 GND.t165 sky130_fd_pr__nfet_01v8 ad=9e+11p pd=4.2e+06u as=0p ps=0u w=1.5e+06u l=150000u
X28 EESPFAL_s3_0/EESPFAL_NAND_v3_0/A.t5 EESPFAL_s3_0/EESPFAL_NAND_v3_0/A_bar.t6 CLK1.t185 CLK1.t184 sky130_fd_pr__pfet_01v8 ad=0p pd=0u as=0p ps=0u w=1.5e+06u l=150000u
X29 a_2730_791# x1_bar.t1 EESPFAL_s0_0/EESPFAL_NAND_v3_1/B GND.t110 sky130_fd_pr__nfet_01v8 ad=9e+11p pd=4.2e+06u as=0p ps=0u w=1.5e+06u l=150000u
X30 s2_bar.t4 s2.t7 CLK3.t37 CLK3.t36 sky130_fd_pr__pfet_01v8 ad=0p pd=0u as=0p ps=0u w=1.5e+06u l=150000u
X31 EESPFAL_s1_0/EESPFAL_3in_NOR_v2_0/C_bar.t2 EESPFAL_s1_0/EESPFAL_3in_NOR_v2_0/C.t6 CLK2.t50 CLK2.t49 sky130_fd_pr__pfet_01v8 ad=0p pd=0u as=0p ps=0u w=1.5e+06u l=150000u
X32 CLK2.t62 EESPFAL_s3_0/EESPFAL_3in_NOR_v2_0/C_bar.t5 EESPFAL_s3_0/EESPFAL_3in_NOR_v2_0/C.t3 CLK2.t61 sky130_fd_pr__pfet_01v8 ad=0p pd=0u as=0p ps=0u w=1.5e+06u l=150000u
X33 EESPFAL_s3_0/EESPFAL_NAND_v3_0/OUT_bar.t0 Dis2.t2 GND.t17 GND.t16 sky130_fd_pr__nfet_01v8 ad=0p pd=0u as=0p ps=0u w=1.5e+06u l=150000u
X34 EESPFAL_s3_0/EESPFAL_NAND_v3_0/OUT_bar.t2 EESPFAL_s3_0/EESPFAL_NAND_v3_0/A_bar.t7 CLK2.t90 GND.t50 sky130_fd_pr__nfet_01v8 ad=0p pd=0u as=0p ps=0u w=1.5e+06u l=150000u
X35 CLK2.t48 EESPFAL_s2_0/EESPFAL_NAND_v3_1/B_bar EESPFAL_s2_0/EESPFAL_NAND_v3_1/OUT_bar.t5 GND.t154 sky130_fd_pr__nfet_01v8 ad=0p pd=0u as=0p ps=0u w=1.5e+06u l=150000u
X36 EESPFAL_s1_0/EESPFAL_NAND_v3_1/A_bar.t5 Dis1.t3 GND.t227 GND.t198 sky130_fd_pr__nfet_01v8 ad=0p pd=0u as=0p ps=0u w=1.5e+06u l=150000u
X37 CLK1.t131 EESPFAL_s1_0/EESPFAL_NAND_v3_1/A.t6 EESPFAL_s1_0/EESPFAL_NAND_v3_1/A_bar.t4 CLK1.t130 sky130_fd_pr__pfet_01v8 ad=0p pd=0u as=0p ps=0u w=1.5e+06u l=150000u
X38 CLK2.t22 EESPFAL_s1_0/EESPFAL_NAND_v3_0/B_bar EESPFAL_s1_0/EESPFAL_NAND_v3_0/OUT_bar.t4 GND.t25 sky130_fd_pr__nfet_01v8 ad=0p pd=0u as=0p ps=0u w=1.5e+06u l=150000u
X39 CLK1.t15 EESPFAL_s1_0/EESPFAL_NAND_v3_1/B_bar EESPFAL_s1_0/EESPFAL_NAND_v3_1/B CLK1.t14 sky130_fd_pr__pfet_01v8 ad=0p pd=0u as=9e+11p ps=4.2e+06u w=1.5e+06u l=150000u
X40 a_1170_n9890# x0_bar.t0 EESPFAL_s3_0/EESPFAL_NAND_v3_0/A.t0 GND.t162 sky130_fd_pr__nfet_01v8 ad=9e+11p pd=4.2e+06u as=0p ps=0u w=1.5e+06u l=150000u
X41 CLK2.t38 EESPFAL_s2_0/EESPFAL_3in_NOR_v2_0/B_bar EESPFAL_s2_0/EESPFAL_3in_NOR_v2_0/B CLK2.t37 sky130_fd_pr__pfet_01v8 ad=0p pd=0u as=9e+11p ps=4.2e+06u w=1.5e+06u l=150000u
X42 CLK1.t99 EESPFAL_s2_0/EESPFAL_NAND_v3_0/A EESPFAL_s2_0/EESPFAL_NAND_v3_0/A_bar CLK1.t98 sky130_fd_pr__pfet_01v8 ad=0p pd=0u as=9e+11p ps=4.2e+06u w=1.5e+06u l=150000u
X43 EESPFAL_s3_0/EESPFAL_NAND_v3_1/B_bar EESPFAL_s3_0/EESPFAL_NAND_v3_1/B CLK1.t46 CLK1.t45 sky130_fd_pr__pfet_01v8 ad=9e+11p pd=4.2e+06u as=0p ps=0u w=1.5e+06u l=150000u
X44 EESPFAL_s1_0/EESPFAL_INV4_0/A_bar x0.t2 CLK1.t24 GND.t46 sky130_fd_pr__nfet_01v8 ad=2.7e+12p pd=1.26e+07u as=0p ps=0u w=1.5e+06u l=150000u
X45 CLK1.t93 EESPFAL_s3_0/EESPFAL_NAND_v3_1/A_bar.t6 EESPFAL_s3_0/EESPFAL_NAND_v3_1/A.t4 CLK1.t92 sky130_fd_pr__pfet_01v8 ad=0p pd=0u as=0p ps=0u w=1.5e+06u l=150000u
X46 EESPFAL_s2_0/EESPFAL_NAND_v3_1/OUT_bar.t4 EESPFAL_s2_0/EESPFAL_NAND_v3_1/A_bar.t6 CLK2.t12 GND.t79 sky130_fd_pr__nfet_01v8 ad=0p pd=0u as=0p ps=0u w=1.5e+06u l=150000u
X47 EESPFAL_s2_0/EESPFAL_NAND_v3_1/A_bar.t2 EESPFAL_s2_0/EESPFAL_NAND_v3_1/A.t6 GND.t89 GND.t88 sky130_fd_pr__nfet_01v8 ad=0p pd=0u as=0p ps=0u w=1.5e+06u l=150000u
X48 EESPFAL_s1_0/EESPFAL_NAND_v3_1/A.t2 EESPFAL_s1_0/EESPFAL_NAND_v3_1/A_bar.t6 CLK1.t30 CLK1.t29 sky130_fd_pr__pfet_01v8 ad=0p pd=0u as=0p ps=0u w=1.5e+06u l=150000u
X49 a_3030_n9890# x1_bar.t2 CLK1.t186 GND.t106 sky130_fd_pr__nfet_01v8 ad=9e+11p pd=4.2e+06u as=0p ps=0u w=1.5e+06u l=150000u
X50 CLK1.t33 x2_bar.t0 EESPFAL_s0_0/EESPFAL_NAND_v3_0/B GND.t26 sky130_fd_pr__nfet_01v8 ad=0p pd=0u as=2.7e+12p ps=1.26e+07u w=1.5e+06u l=150000u
X51 CLK2.t68 EESPFAL_s3_0/EESPFAL_3in_NOR_v2_0/C.t5 EESPFAL_s3_0/EESPFAL_3in_NOR_v2_0/C_bar.t3 CLK2.t67 sky130_fd_pr__pfet_01v8 ad=0p pd=0u as=0p ps=0u w=1.5e+06u l=150000u
X52 EESPFAL_s0_0/EESPFAL_NAND_v3_0/B_bar Dis1.t4 GND.t225 GND.t150 sky130_fd_pr__nfet_01v8 ad=1.8e+12p pd=8.4e+06u as=0p ps=0u w=1.5e+06u l=150000u
X53 CLK1.t26 EESPFAL_s0_0/EESPFAL_NAND_v3_0/A.t6 EESPFAL_s0_0/EESPFAL_NAND_v3_0/A_bar.t5 CLK1.t25 sky130_fd_pr__pfet_01v8 ad=0p pd=0u as=0p ps=0u w=1.5e+06u l=150000u
X54 EESPFAL_s1_0/EESPFAL_NAND_v3_1/B_bar EESPFAL_s1_0/EESPFAL_NAND_v3_1/B CLK1.t176 CLK1.t175 sky130_fd_pr__pfet_01v8 ad=9e+11p pd=4.2e+06u as=0p ps=0u w=1.5e+06u l=150000u
X55 EESPFAL_s0_0/EESPFAL_NOR_v3_0/B EESPFAL_s0_0/EESPFAL_NOR_v3_0/B_bar GND.t172 GND.t171 sky130_fd_pr__nfet_01v8 ad=1.8e+12p pd=8.4e+06u as=0p ps=0u w=1.5e+06u l=150000u
X56 EESPFAL_s0_0/EESPFAL_NAND_v3_0/A.t3 EESPFAL_s0_0/EESPFAL_NAND_v3_0/A_bar.t6 CLK1.t89 CLK1.t88 sky130_fd_pr__pfet_01v8 ad=0p pd=0u as=0p ps=0u w=1.5e+06u l=150000u
X57 s0_bar.t1 s0.t7 GND.t65 GND.t64 sky130_fd_pr__nfet_01v8 ad=0p pd=0u as=0p ps=0u w=1.5e+06u l=150000u
X58 a_2770_n7750# x2_bar.t1 EESPFAL_s2_0/EESPFAL_NAND_v3_1/A_bar.t1 GND.t62 sky130_fd_pr__nfet_01v8 ad=9e+11p pd=4.2e+06u as=0p ps=0u w=1.5e+06u l=150000u
X59 CLK1.t187 x1_bar.t3 EESPFAL_s1_0/EESPFAL_INV4_0/A_bar GND.t288 sky130_fd_pr__nfet_01v8 ad=0p pd=0u as=0p ps=0u w=1.5e+06u l=150000u
X60 GND.t224 Dis1.t5 EESPFAL_s2_0/EESPFAL_NAND_v3_1/A_bar.t4 GND.t192 sky130_fd_pr__nfet_01v8 ad=0p pd=0u as=0p ps=0u w=1.5e+06u l=150000u
X61 EESPFAL_s2_0/EESPFAL_NAND_v3_1/B_bar EESPFAL_s2_0/EESPFAL_NAND_v3_1/B CLK1.t11 CLK1.t10 sky130_fd_pr__pfet_01v8 ad=9e+11p pd=4.2e+06u as=0p ps=0u w=1.5e+06u l=150000u
X62 GND.t105 s1_bar.t5 s1.t1 GND.t104 sky130_fd_pr__nfet_01v8 ad=0p pd=0u as=0p ps=0u w=1.5e+06u l=150000u
X63 GND.t109 EESPFAL_s1_0/EESPFAL_NAND_v3_0/A_bar.t7 EESPFAL_s1_0/EESPFAL_NAND_v3_0/A.t3 GND.t108 sky130_fd_pr__nfet_01v8 ad=0p pd=0u as=0p ps=0u w=1.5e+06u l=150000u
X64 EESPFAL_s0_0/EESPFAL_NAND_v3_0/A.t0 x3.t1 a_3030_1471# GND.t170 sky130_fd_pr__nfet_01v8 ad=0p pd=0u as=9e+11p ps=4.2e+06u w=1.5e+06u l=150000u
X65 CLK1.t60 x1.t4 EESPFAL_s0_0/EESPFAL_NAND_v3_1/B_bar GND.t55 sky130_fd_pr__nfet_01v8 ad=0p pd=0u as=2.7e+12p ps=1.26e+07u w=1.5e+06u l=150000u
X66 GND.t223 Dis1.t6 EESPFAL_s0_0/EESPFAL_NAND_v3_0/A.t5 GND.t206 sky130_fd_pr__nfet_01v8 ad=0p pd=0u as=0p ps=0u w=1.5e+06u l=150000u
X67 GND.t222 Dis1.t7 EESPFAL_s3_0/EESPFAL_NAND_v3_0/A_bar.t4 GND.t183 sky130_fd_pr__nfet_01v8 ad=0p pd=0u as=0p ps=0u w=1.5e+06u l=150000u
X68 EESPFAL_s3_0/EESPFAL_NAND_v3_1/OUT_bar Dis2.t3 GND.t18 GND.t16 sky130_fd_pr__nfet_01v8 ad=0p pd=0u as=0p ps=0u w=1.5e+06u l=150000u
X69 EESPFAL_s1_0/EESPFAL_INV4_0/A_bar Dis1.t8 GND.t221 GND.t220 sky130_fd_pr__nfet_01v8 ad=0p pd=0u as=0p ps=0u w=1.5e+06u l=150000u
X70 GND.t5 EESPFAL_s1_0/EESPFAL_NAND_v3_0/B EESPFAL_s1_0/EESPFAL_NAND_v3_0/B_bar GND.t4 sky130_fd_pr__nfet_01v8 ad=0p pd=0u as=1.8e+12p ps=8.4e+06u w=1.5e+06u l=150000u
X71 EESPFAL_s0_0/EESPFAL_NAND_v3_0/A_bar.t0 x3.t2 a_1470_1471# GND.t80 sky130_fd_pr__nfet_01v8 ad=0p pd=0u as=9e+11p ps=4.2e+06u w=1.5e+06u l=150000u
X72 CLK2.t87 EESPFAL_s3_0/EESPFAL_NAND_v3_1/OUT_bar EESPFAL_s3_0/EESPFAL_NAND_v3_1/OUT CLK2.t86 sky130_fd_pr__pfet_01v8 ad=0p pd=0u as=9e+11p ps=4.2e+06u w=1.5e+06u l=150000u
X73 CLK1.t180 EESPFAL_s3_0/EESPFAL_NAND_v3_1/A.t7 EESPFAL_s3_0/EESPFAL_NAND_v3_1/A_bar.t5 CLK1.t179 sky130_fd_pr__pfet_01v8 ad=0p pd=0u as=0p ps=0u w=1.5e+06u l=150000u
X74 CLK1.t9 EESPFAL_s2_0/EESPFAL_NAND_v3_1/B EESPFAL_s2_0/EESPFAL_NAND_v3_1/B_bar CLK1.t8 sky130_fd_pr__pfet_01v8 ad=0p pd=0u as=0p ps=0u w=1.5e+06u l=150000u
X75 CLK2.t110 EESPFAL_s3_0/EESPFAL_NAND_v3_0/OUT EESPFAL_s3_0/EESPFAL_NAND_v3_0/OUT_bar.t5 CLK2.t109 sky130_fd_pr__pfet_01v8 ad=0p pd=0u as=0p ps=0u w=1.5e+06u l=150000u
X76 GND.t136 EESPFAL_s2_0/EESPFAL_INV4_2/A EESPFAL_s2_0/EESPFAL_INV4_2/A_bar GND.t135 sky130_fd_pr__nfet_01v8 ad=0p pd=0u as=3.6e+12p ps=1.68e+07u w=1.5e+06u l=150000u
X77 CLK1.t134 x3_bar.t1 EESPFAL_s3_0/EESPFAL_NAND_v3_0/B GND.t163 sky130_fd_pr__nfet_01v8 ad=0p pd=0u as=1.8e+12p ps=8.4e+06u w=1.5e+06u l=150000u
X78 EESPFAL_s2_0/EESPFAL_NAND_v3_0/A_bar EESPFAL_s2_0/EESPFAL_NAND_v3_0/A CLK1.t97 CLK1.t96 sky130_fd_pr__pfet_01v8 ad=0p pd=0u as=0p ps=0u w=1.5e+06u l=150000u
X79 EESPFAL_s0_0/EESPFAL_NAND_v3_1/B_bar Dis1.t9 GND.t219 GND.t213 sky130_fd_pr__nfet_01v8 ad=0p pd=0u as=0p ps=0u w=1.5e+06u l=150000u
X80 GND.t218 Dis1.t10 EESPFAL_s3_0/EESPFAL_NAND_v3_0/B GND.t211 sky130_fd_pr__nfet_01v8 ad=0p pd=0u as=0p ps=0u w=1.5e+06u l=150000u
X81 EESPFAL_s2_0/EESPFAL_NAND_v3_0/B EESPFAL_s2_0/EESPFAL_NAND_v3_0/B_bar GND.t235 GND.t152 sky130_fd_pr__nfet_01v8 ad=1.8e+12p pd=8.4e+06u as=0p ps=0u w=1.5e+06u l=150000u
X82 EESPFAL_s2_0/EESPFAL_3in_NOR_v2_0/C_bar.t2 EESPFAL_s2_0/EESPFAL_3in_NOR_v2_0/C.t5 CLK2.t114 CLK2.t113 sky130_fd_pr__pfet_01v8 ad=0p pd=0u as=0p ps=0u w=1.5e+06u l=150000u
X83 s1_bar.t1 s1.t8 GND.t314 GND.t313 sky130_fd_pr__nfet_01v8 ad=0p pd=0u as=0p ps=0u w=1.5e+06u l=150000u
X84 EESPFAL_s1_0/EESPFAL_NAND_v3_0/A_bar.t1 EESPFAL_s1_0/EESPFAL_NAND_v3_0/A.t7 GND.t74 GND.t9 sky130_fd_pr__nfet_01v8 ad=0p pd=0u as=0p ps=0u w=1.5e+06u l=150000u
X85 a_7190_n4930# EESPFAL_s2_0/EESPFAL_3in_NOR_v2_0/B_bar a_7040_n4930# GND.t130 sky130_fd_pr__nfet_01v8 ad=9e+11p pd=4.2e+06u as=9e+11p ps=4.2e+06u w=1.5e+06u l=150000u
X86 EESPFAL_s3_0/EESPFAL_3in_NOR_v2_0/C_bar.t4 EESPFAL_s3_0/EESPFAL_INV4_0/A_bar CLK2.t79 GND.t252 sky130_fd_pr__nfet_01v8 ad=0p pd=0u as=0p ps=0u w=1.5e+06u l=150000u
X87 CLK1.t61 x1.t5 a_2730_n9890# GND.t56 sky130_fd_pr__nfet_01v8 ad=0p pd=0u as=9e+11p ps=4.2e+06u w=1.5e+06u l=150000u
X88 EESPFAL_s1_0/EESPFAL_NAND_v3_0/B EESPFAL_s1_0/EESPFAL_NAND_v3_0/B_bar GND.t102 GND.t101 sky130_fd_pr__nfet_01v8 ad=1.8e+12p pd=8.4e+06u as=0p ps=0u w=1.5e+06u l=150000u
X89 GND.t124 EESPFAL_s1_0/EESPFAL_NAND_v3_1/OUT EESPFAL_s1_0/EESPFAL_NAND_v3_1/OUT_bar GND.t13 sky130_fd_pr__nfet_01v8 ad=0p pd=0u as=2.7e+12p ps=1.26e+07u w=1.5e+06u l=150000u
X90 CLK1.t170 x3_bar.t2 a_3070_n4929# GND.t257 sky130_fd_pr__nfet_01v8 ad=0p pd=0u as=9e+11p ps=4.2e+06u w=1.5e+06u l=150000u
X91 s3_bar.t3 s3.t7 CLK3.t46 CLK3.t45 sky130_fd_pr__pfet_01v8 ad=0p pd=0u as=0p ps=0u w=1.5e+06u l=150000u
X92 CLK1.t161 EESPFAL_s3_0/EESPFAL_INV4_0/A_bar EESPFAL_s3_0/EESPFAL_INV4_0/A CLK1.t160 sky130_fd_pr__pfet_01v8 ad=0p pd=0u as=9e+11p ps=4.2e+06u w=1.5e+06u l=150000u
X93 EESPFAL_s3_0/EESPFAL_3in_NOR_v2_0/C.t1 EESPFAL_s3_0/EESPFAL_3in_NOR_v2_0/C_bar.t6 GND.t299 GND.t298 sky130_fd_pr__nfet_01v8 ad=0p pd=0u as=0p ps=0u w=1.5e+06u l=150000u
X94 CLK1.t27 x2_bar.t2 EESPFAL_s2_0/EESPFAL_NAND_v3_0/B GND.t53 sky130_fd_pr__nfet_01v8 ad=0p pd=0u as=0p ps=0u w=1.5e+06u l=150000u
X95 GND.t217 Dis1.t11 EESPFAL_s2_0/EESPFAL_NAND_v3_0/B GND.t194 sky130_fd_pr__nfet_01v8 ad=0p pd=0u as=0p ps=0u w=1.5e+06u l=150000u
X96 CLK2.t25 EESPFAL_s2_0/EESPFAL_3in_NOR_v2_0/C.t6 EESPFAL_s2_0/EESPFAL_3in_NOR_v2_0/C_bar.t1 CLK2.t24 sky130_fd_pr__pfet_01v8 ad=0p pd=0u as=0p ps=0u w=1.5e+06u l=150000u
X97 a_2730_n1349# x0_bar.t1 EESPFAL_s1_0/EESPFAL_NAND_v3_0/A_bar.t3 GND.t113 sky130_fd_pr__nfet_01v8 ad=9e+11p pd=4.2e+06u as=0p ps=0u w=1.5e+06u l=150000u
X98 EESPFAL_s0_0/EESPFAL_NAND_v3_1/B EESPFAL_s0_0/EESPFAL_NAND_v3_1/B_bar CLK1.t167 CLK1.t166 sky130_fd_pr__pfet_01v8 ad=9e+11p pd=4.2e+06u as=0p ps=0u w=1.5e+06u l=150000u
X99 CLK3.t38 EESPFAL_s2_0/EESPFAL_NAND_v3_1/OUT_bar.t6 a_7190_n4930# GND.t40 sky130_fd_pr__nfet_01v8 ad=0p pd=0u as=0p ps=0u w=1.5e+06u l=150000u
X100 EESPFAL_s0_0/EESPFAL_NOR_v3_0/B_bar EESPFAL_s0_0/EESPFAL_NOR_v3_0/B CLK2.t100 CLK2.t99 sky130_fd_pr__pfet_01v8 ad=9e+11p pd=4.2e+06u as=0p ps=0u w=1.5e+06u l=150000u
X101 EESPFAL_s3_0/EESPFAL_NAND_v3_1/A_bar.t2 EESPFAL_s3_0/EESPFAL_NAND_v3_1/A.t8 CLK1.t140 CLK1.t139 sky130_fd_pr__pfet_01v8 ad=0p pd=0u as=0p ps=0u w=1.5e+06u l=150000u
X102 EESPFAL_s2_0/EESPFAL_NAND_v3_1/OUT_bar.t2 EESPFAL_s2_0/EESPFAL_NAND_v3_1/OUT CLK2.t3 CLK2.t2 sky130_fd_pr__pfet_01v8 ad=0p pd=0u as=0p ps=0u w=1.5e+06u l=150000u
X103 CLK1.t6 x1_bar.t4 EESPFAL_s2_0/EESPFAL_INV4_2/A_bar GND.t11 sky130_fd_pr__nfet_01v8 ad=0p pd=0u as=0p ps=0u w=1.5e+06u l=150000u
X104 s0.t1 s0_bar.t5 CLK3.t21 CLK3.t20 sky130_fd_pr__pfet_01v8 ad=0p pd=0u as=0p ps=0u w=1.5e+06u l=150000u
X105 GND.t283 EESPFAL_s2_0/EESPFAL_3in_NOR_v2_0/B EESPFAL_s2_0/EESPFAL_3in_NOR_v2_0/B_bar GND.t0 sky130_fd_pr__nfet_01v8 ad=0p pd=0u as=2.7e+12p ps=1.26e+07u w=1.5e+06u l=150000u
X106 s1.t3 EESPFAL_s1_0/EESPFAL_3in_NOR_v2_0/C.t7 CLK3.t15 GND.t157 sky130_fd_pr__nfet_01v8 ad=0p pd=0u as=0p ps=0u w=1.5e+06u l=150000u
X107 EESPFAL_s1_0/EESPFAL_NAND_v3_0/A.t0 x0.t3 a_1470_n1349# GND.t47 sky130_fd_pr__nfet_01v8 ad=0p pd=0u as=9e+11p ps=4.2e+06u w=1.5e+06u l=150000u
X108 CLK2.t18 EESPFAL_s3_0/EESPFAL_NAND_v3_1/OUT EESPFAL_s3_0/EESPFAL_NAND_v3_1/OUT_bar CLK2.t17 sky130_fd_pr__pfet_01v8 ad=0p pd=0u as=9e+11p ps=4.2e+06u w=1.5e+06u l=150000u
X109 s2.t0 EESPFAL_s2_0/EESPFAL_NAND_v3_1/OUT CLK3.t0 GND.t2 sky130_fd_pr__nfet_01v8 ad=0p pd=0u as=0p ps=0u w=1.5e+06u l=150000u
X110 EESPFAL_s1_0/EESPFAL_NAND_v3_0/B_bar x3_bar.t3 CLK1.t171 GND.t142 sky130_fd_pr__nfet_01v8 ad=0p pd=0u as=0p ps=0u w=1.5e+06u l=150000u
X111 EESPFAL_s2_0/EESPFAL_INV4_2/A_bar Dis1.t12 GND.t216 GND.t215 sky130_fd_pr__nfet_01v8 ad=0p pd=0u as=0p ps=0u w=1.5e+06u l=150000u
X112 EESPFAL_s3_0/EESPFAL_NAND_v3_0/OUT_bar.t4 EESPFAL_s3_0/EESPFAL_NAND_v3_0/OUT CLK2.t108 CLK2.t107 sky130_fd_pr__pfet_01v8 ad=0p pd=0u as=0p ps=0u w=1.5e+06u l=150000u
X113 EESPFAL_s2_0/EESPFAL_INV4_2/A_bar x3.t3 CLK1.t183 GND.t284 sky130_fd_pr__nfet_01v8 ad=0p pd=0u as=0p ps=0u w=1.5e+06u l=150000u
X114 CLK1.t178 EESPFAL_s1_0/EESPFAL_NAND_v3_0/A.t8 EESPFAL_s1_0/EESPFAL_NAND_v3_0/A_bar.t5 CLK1.t177 sky130_fd_pr__pfet_01v8 ad=0p pd=0u as=0p ps=0u w=1.5e+06u l=150000u
X115 EESPFAL_s3_0/EESPFAL_INV4_0/A EESPFAL_s3_0/EESPFAL_INV4_0/A_bar GND.t251 GND.t250 sky130_fd_pr__nfet_01v8 ad=1.8e+12p pd=8.4e+06u as=0p ps=0u w=1.5e+06u l=150000u
X116 EESPFAL_s2_0/EESPFAL_3in_NOR_v2_0/B EESPFAL_s2_0/EESPFAL_3in_NOR_v2_0/B_bar GND.t129 GND.t128 sky130_fd_pr__nfet_01v8 ad=1.8e+12p pd=8.4e+06u as=0p ps=0u w=1.5e+06u l=150000u
X117 CLK2.t80 EESPFAL_s0_0/EESPFAL_NAND_v3_1/B_bar EESPFAL_s0_0/EESPFAL_NOR_v3_0/B_bar GND.t147 sky130_fd_pr__nfet_01v8 ad=0p pd=0u as=0p ps=0u w=1.5e+06u l=150000u
X118 CLK3.t10 EESPFAL_s0_0/EESPFAL_NAND_v3_0/OUT s0.t4 GND.t115 sky130_fd_pr__nfet_01v8 ad=0p pd=0u as=0p ps=0u w=1.5e+06u l=150000u
X119 GND.t33 Dis3.t1 s2_bar.t0 GND.t32 sky130_fd_pr__nfet_01v8 ad=0p pd=0u as=0p ps=0u w=1.5e+06u l=150000u
X120 s3.t1 s3_bar.t5 CLK3.t8 CLK3.t7 sky130_fd_pr__pfet_01v8 ad=0p pd=0u as=0p ps=0u w=1.5e+06u l=150000u
X121 CLK2.t7 EESPFAL_s1_0/EESPFAL_NAND_v3_0/OUT EESPFAL_s1_0/EESPFAL_NAND_v3_0/OUT_bar.t2 CLK2.t6 sky130_fd_pr__pfet_01v8 ad=0p pd=0u as=0p ps=0u w=1.5e+06u l=150000u
X122 a_1210_n7070# x0_bar.t2 EESPFAL_s2_0/EESPFAL_NAND_v3_0/A_bar GND.t72 sky130_fd_pr__nfet_01v8 ad=9e+11p pd=4.2e+06u as=0p ps=0u w=1.5e+06u l=150000u
X123 CLK1.t157 EESPFAL_s3_0/EESPFAL_INV4_0/A EESPFAL_s3_0/EESPFAL_INV4_0/A_bar CLK1.t156 sky130_fd_pr__pfet_01v8 ad=0p pd=0u as=9e+11p ps=4.2e+06u w=1.5e+06u l=150000u
X124 EESPFAL_s3_0/EESPFAL_3in_NOR_v2_0/C_bar.t2 EESPFAL_s3_0/EESPFAL_3in_NOR_v2_0/C.t6 CLK2.t14 CLK2.t13 sky130_fd_pr__pfet_01v8 ad=0p pd=0u as=0p ps=0u w=1.5e+06u l=150000u
X125 CLK2.t78 EESPFAL_s3_0/EESPFAL_INV4_0/A EESPFAL_s3_0/EESPFAL_3in_NOR_v2_0/C.t4 GND.t249 sky130_fd_pr__nfet_01v8 ad=0p pd=0u as=0p ps=0u w=1.5e+06u l=150000u
X126 EESPFAL_s1_0/EESPFAL_NAND_v3_1/OUT_bar Dis2.t4 GND.t270 GND.t269 sky130_fd_pr__nfet_01v8 ad=0p pd=0u as=0p ps=0u w=1.5e+06u l=150000u
X127 a_2730_1471# x3_bar.t4 EESPFAL_s0_0/EESPFAL_NAND_v3_0/A.t2 GND.t110 sky130_fd_pr__nfet_01v8 ad=9e+11p pd=4.2e+06u as=0p ps=0u w=1.5e+06u l=150000u
X128 EESPFAL_s1_0/EESPFAL_NAND_v3_1/OUT_bar EESPFAL_s1_0/EESPFAL_NAND_v3_1/A_bar.t7 CLK2.t115 GND.t144 sky130_fd_pr__nfet_01v8 ad=0p pd=0u as=0p ps=0u w=1.5e+06u l=150000u
X129 CLK3.t33 s1_bar.t6 s1.t5 CLK3.t32 sky130_fd_pr__pfet_01v8 ad=0p pd=0u as=0p ps=0u w=1.5e+06u l=150000u
X130 EESPFAL_s0_0/EESPFAL_NAND_v3_0/A_bar.t2 Dis1.t13 GND.t214 GND.t213 sky130_fd_pr__nfet_01v8 ad=0p pd=0u as=0p ps=0u w=1.5e+06u l=150000u
X131 a_6859_n7070# EESPFAL_s2_0/EESPFAL_NAND_v3_0/B EESPFAL_s2_0/EESPFAL_3in_NOR_v2_0/B GND.t23 sky130_fd_pr__nfet_01v8 ad=0p pd=0u as=0p ps=0u w=1.5e+06u l=150000u
X132 a_3070_n7070# x1_bar.t5 CLK1.t7 GND.t12 sky130_fd_pr__nfet_01v8 ad=0p pd=0u as=0p ps=0u w=1.5e+06u l=150000u
X133 GND.t232 Dis3.t2 s3_bar.t0 GND.t231 sky130_fd_pr__nfet_01v8 ad=0p pd=0u as=0p ps=0u w=1.5e+06u l=150000u
X134 EESPFAL_s3_0/EESPFAL_NAND_v3_1/A.t0 x3.t4 a_3030_n10570# GND.t69 sky130_fd_pr__nfet_01v8 ad=0p pd=0u as=9e+11p ps=4.2e+06u w=1.5e+06u l=150000u
X135 EESPFAL_s1_0/EESPFAL_INV4_0/A_bar EESPFAL_s1_0/EESPFAL_INV4_0/A CLK1.t138 CLK1.t137 sky130_fd_pr__pfet_01v8 ad=9e+11p pd=4.2e+06u as=0p ps=0u w=1.5e+06u l=150000u
X136 CLK1.t31 x1_bar.t6 a_1210_n7070# GND.t60 sky130_fd_pr__nfet_01v8 ad=0p pd=0u as=0p ps=0u w=1.5e+06u l=150000u
X137 a_1170_n2029# x3_bar.t5 EESPFAL_s1_0/EESPFAL_NAND_v3_1/A_bar.t1 GND.t111 sky130_fd_pr__nfet_01v8 ad=0p pd=0u as=0p ps=0u w=1.5e+06u l=150000u
X138 s2.t2 s2_bar.t6 CLK3.t3 CLK3.t2 sky130_fd_pr__pfet_01v8 ad=0p pd=0u as=0p ps=0u w=1.5e+06u l=150000u
X139 EESPFAL_s1_0/EESPFAL_NAND_v3_1/OUT EESPFAL_s1_0/EESPFAL_NAND_v3_1/OUT_bar CLK2.t95 CLK2.t94 sky130_fd_pr__pfet_01v8 ad=9e+11p pd=4.2e+06u as=0p ps=0u w=1.5e+06u l=150000u
X140 CLK2.t53 EESPFAL_s0_0/EESPFAL_NAND_v3_0/A_bar.t7 a_5050_791# GND.t51 sky130_fd_pr__nfet_01v8 ad=0p pd=0u as=9e+11p ps=4.2e+06u w=1.5e+06u l=150000u
X141 EESPFAL_s2_0/EESPFAL_NAND_v3_0/B EESPFAL_s2_0/EESPFAL_NAND_v3_0/B_bar CLK1.t146 CLK1.t145 sky130_fd_pr__pfet_01v8 ad=9e+11p pd=4.2e+06u as=0p ps=0u w=1.5e+06u l=150000u
X142 EESPFAL_s0_0/EESPFAL_NOR_v3_0/B EESPFAL_s0_0/EESPFAL_NOR_v3_0/B_bar CLK2.t66 CLK2.t65 sky130_fd_pr__pfet_01v8 ad=9e+11p pd=4.2e+06u as=0p ps=0u w=1.5e+06u l=150000u
X143 CLK3.t23 EESPFAL_s0_0/EESPFAL_NAND_v3_0/OUT_bar a_7070_791# GND.t29 sky130_fd_pr__nfet_01v8 ad=0p pd=0u as=9e+11p ps=4.2e+06u w=1.5e+06u l=150000u
X144 CLK3.t14 EESPFAL_s3_0/EESPFAL_NAND_v3_0/OUT_bar.t6 a_6971_n12711# GND.t71 sky130_fd_pr__nfet_01v8 ad=0p pd=0u as=9e+11p ps=4.2e+06u w=1.5e+06u l=150000u
X145 s1_bar.t2 s1.t9 CLK3.t44 CLK3.t43 sky130_fd_pr__pfet_01v8 ad=0p pd=0u as=0p ps=0u w=1.5e+06u l=150000u
X146 GND.t212 Dis1.t14 EESPFAL_s3_0/EESPFAL_NAND_v3_1/B GND.t211 sky130_fd_pr__nfet_01v8 ad=0p pd=0u as=0p ps=0u w=1.5e+06u l=150000u
X147 s0_bar.t2 s0.t8 CLK3.t25 CLK3.t24 sky130_fd_pr__pfet_01v8 ad=0p pd=0u as=0p ps=0u w=1.5e+06u l=150000u
X148 EESPFAL_s3_0/EESPFAL_INV4_0/A_bar EESPFAL_s3_0/EESPFAL_INV4_0/A CLK1.t155 CLK1.t154 sky130_fd_pr__pfet_01v8 ad=0p pd=0u as=0p ps=0u w=1.5e+06u l=150000u
X149 a_2731_n12710# x3.t5 EESPFAL_s3_0/EESPFAL_INV4_0/A GND.t70 sky130_fd_pr__nfet_01v8 ad=9e+11p pd=4.2e+06u as=0p ps=0u w=1.5e+06u l=150000u
X150 a_3030_n2029# x1_bar.t7 CLK1.t32 GND.t61 sky130_fd_pr__nfet_01v8 ad=0p pd=0u as=0p ps=0u w=1.5e+06u l=150000u
X151 a_7070_1471# EESPFAL_s0_0/EESPFAL_NAND_v3_0/B EESPFAL_s0_0/EESPFAL_NAND_v3_0/OUT GND.t139 sky130_fd_pr__nfet_01v8 ad=9e+11p pd=4.2e+06u as=1.8e+12p ps=8.4e+06u w=1.5e+06u l=150000u
X152 EESPFAL_s2_0/EESPFAL_NAND_v3_1/A_bar.t3 EESPFAL_s2_0/EESPFAL_NAND_v3_1/A.t7 CLK1.t124 CLK1.t123 sky130_fd_pr__pfet_01v8 ad=0p pd=0u as=0p ps=0u w=1.5e+06u l=150000u
X153 EESPFAL_s0_0/EESPFAL_NAND_v3_0/OUT_bar Dis2.t5 GND.t271 GND.t30 sky130_fd_pr__nfet_01v8 ad=2.7e+12p pd=1.26e+07u as=0p ps=0u w=1.5e+06u l=150000u
X154 GND.t28 EESPFAL_s0_0/EESPFAL_NAND_v3_1/B EESPFAL_s0_0/EESPFAL_NAND_v3_1/B_bar GND.t27 sky130_fd_pr__nfet_01v8 ad=0p pd=0u as=0p ps=0u w=1.5e+06u l=150000u
X155 CLK3.t9 EESPFAL_s3_0/EESPFAL_NAND_v3_1/OUT s3.t2 GND.t84 sky130_fd_pr__nfet_01v8 ad=0p pd=0u as=0p ps=0u w=1.5e+06u l=150000u
X156 GND.t114 EESPFAL_s0_0/EESPFAL_NAND_v3_0/OUT EESPFAL_s0_0/EESPFAL_NAND_v3_0/OUT_bar GND.t82 sky130_fd_pr__nfet_01v8 ad=0p pd=0u as=0p ps=0u w=1.5e+06u l=150000u
X157 EESPFAL_s3_0/EESPFAL_NAND_v3_1/A.t2 EESPFAL_s3_0/EESPFAL_NAND_v3_1/A_bar.t7 GND.t107 GND.t37 sky130_fd_pr__nfet_01v8 ad=0p pd=0u as=0p ps=0u w=1.5e+06u l=150000u
X158 EESPFAL_s3_0/EESPFAL_INV4_0/A_bar x2.t0 CLK1.t66 GND.t90 sky130_fd_pr__nfet_01v8 ad=2.7e+12p pd=1.26e+07u as=0p ps=0u w=1.5e+06u l=150000u
X159 CLK1.t21 EESPFAL_s3_0/EESPFAL_NAND_v3_0/A.t6 EESPFAL_s3_0/EESPFAL_NAND_v3_0/A_bar.t0 CLK1.t20 sky130_fd_pr__pfet_01v8 ad=0p pd=0u as=0p ps=0u w=1.5e+06u l=150000u
X160 CLK2.t93 EESPFAL_s1_0/EESPFAL_NAND_v3_1/OUT_bar EESPFAL_s1_0/EESPFAL_NAND_v3_1/OUT CLK2.t92 sky130_fd_pr__pfet_01v8 ad=0p pd=0u as=0p ps=0u w=1.5e+06u l=150000u
X161 EESPFAL_s0_0/EESPFAL_NAND_v3_0/B_bar EESPFAL_s0_0/EESPFAL_NAND_v3_0/B CLK1.t111 CLK1.t110 sky130_fd_pr__pfet_01v8 ad=9e+11p pd=4.2e+06u as=0p ps=0u w=1.5e+06u l=150000u
X162 CLK1.t144 EESPFAL_s2_0/EESPFAL_NAND_v3_0/B_bar EESPFAL_s2_0/EESPFAL_NAND_v3_0/B CLK1.t143 sky130_fd_pr__pfet_01v8 ad=0p pd=0u as=0p ps=0u w=1.5e+06u l=150000u
X163 EESPFAL_s1_0/EESPFAL_NAND_v3_0/B_bar EESPFAL_s1_0/EESPFAL_NAND_v3_0/B CLK1.t3 CLK1.t2 sky130_fd_pr__pfet_01v8 ad=9e+11p pd=4.2e+06u as=0p ps=0u w=1.5e+06u l=150000u
X164 EESPFAL_s0_0/EESPFAL_NAND_v3_1/B_bar EESPFAL_s0_0/EESPFAL_NAND_v3_1/B CLK1.t19 CLK1.t18 sky130_fd_pr__pfet_01v8 ad=9e+11p pd=4.2e+06u as=0p ps=0u w=1.5e+06u l=150000u
X165 GND.t49 s3_bar.t6 s3.t0 GND.t48 sky130_fd_pr__nfet_01v8 ad=0p pd=0u as=0p ps=0u w=1.5e+06u l=150000u
X166 CLK1.t75 EESPFAL_s3_0/EESPFAL_NAND_v3_0/B_bar EESPFAL_s3_0/EESPFAL_NAND_v3_0/B CLK1.t74 sky130_fd_pr__pfet_01v8 ad=0p pd=0u as=9e+11p ps=4.2e+06u w=1.5e+06u l=150000u
X167 CLK1.t194 EESPFAL_s2_0/EESPFAL_NAND_v3_1/A.t8 EESPFAL_s2_0/EESPFAL_NAND_v3_1/A_bar.t5 CLK1.t193 sky130_fd_pr__pfet_01v8 ad=0p pd=0u as=0p ps=0u w=1.5e+06u l=150000u
X168 CLK2.t104 EESPFAL_s2_0/EESPFAL_3in_NOR_v2_0/B EESPFAL_s2_0/EESPFAL_3in_NOR_v2_0/B_bar CLK2.t103 sky130_fd_pr__pfet_01v8 ad=0p pd=0u as=9e+11p ps=4.2e+06u w=1.5e+06u l=150000u
X169 CLK2.t20 EESPFAL_s3_0/EESPFAL_NAND_v3_0/B_bar EESPFAL_s3_0/EESPFAL_NAND_v3_0/OUT_bar.t1 GND.t97 sky130_fd_pr__nfet_01v8 ad=0p pd=0u as=0p ps=0u w=1.5e+06u l=150000u
X170 a_6971_n12711# EESPFAL_s3_0/EESPFAL_NAND_v3_1/OUT_bar a_6821_n12711# GND.t262 sky130_fd_pr__nfet_01v8 ad=0p pd=0u as=9e+11p ps=4.2e+06u w=1.5e+06u l=150000u
X171 EESPFAL_s0_0/EESPFAL_NAND_v3_0/B x1.t6 CLK1.t57 GND.t51 sky130_fd_pr__nfet_01v8 ad=0p pd=0u as=0p ps=0u w=1.5e+06u l=150000u
X172 CLK1.t59 x1.t7 a_2770_n7070# GND.t52 sky130_fd_pr__nfet_01v8 ad=0p pd=0u as=9e+11p ps=4.2e+06u w=1.5e+06u l=150000u
X173 GND.t208 Dis1.t15 EESPFAL_s1_0/EESPFAL_NAND_v3_1/A.t5 GND.t181 sky130_fd_pr__nfet_01v8 ad=0p pd=0u as=0p ps=0u w=1.5e+06u l=150000u
X174 GND.t138 EESPFAL_s0_0/EESPFAL_NAND_v3_0/B EESPFAL_s0_0/EESPFAL_NAND_v3_0/B_bar GND.t137 sky130_fd_pr__nfet_01v8 ad=0p pd=0u as=0p ps=0u w=1.5e+06u l=150000u
X175 EESPFAL_s1_0/EESPFAL_NAND_v3_0/A.t4 EESPFAL_s1_0/EESPFAL_NAND_v3_0/A_bar.t8 CLK1.t52 CLK1.t51 sky130_fd_pr__pfet_01v8 ad=0p pd=0u as=0p ps=0u w=1.5e+06u l=150000u
X176 EESPFAL_s0_0/EESPFAL_NAND_v3_0/B EESPFAL_s0_0/EESPFAL_NAND_v3_0/B_bar GND.t297 GND.t171 sky130_fd_pr__nfet_01v8 ad=0p pd=0u as=0p ps=0u w=1.5e+06u l=150000u
X177 GND.t78 EESPFAL_s3_0/EESPFAL_NAND_v3_1/B EESPFAL_s3_0/EESPFAL_NAND_v3_1/B_bar GND.t77 sky130_fd_pr__nfet_01v8 ad=0p pd=0u as=1.8e+12p ps=8.4e+06u w=1.5e+06u l=150000u
X178 EESPFAL_s1_0/EESPFAL_NAND_v3_0/OUT EESPFAL_s1_0/EESPFAL_NAND_v3_0/OUT_bar.t6 GND.t287 GND.t273 sky130_fd_pr__nfet_01v8 ad=1.8e+12p pd=8.4e+06u as=0p ps=0u w=1.5e+06u l=150000u
X179 CLK1.t64 EESPFAL_s0_0/EESPFAL_NAND_v3_0/A_bar.t8 EESPFAL_s0_0/EESPFAL_NAND_v3_0/A.t1 CLK1.t63 sky130_fd_pr__pfet_01v8 ad=0p pd=0u as=0p ps=0u w=1.5e+06u l=150000u
X180 CLK1.t147 x2.t1 EESPFAL_s1_0/EESPFAL_NAND_v3_1/B_bar GND.t238 sky130_fd_pr__nfet_01v8 ad=0p pd=0u as=1.8e+12p ps=8.4e+06u w=1.5e+06u l=150000u
X181 a_3790_1471# x1_bar.t8 CLK1.t117 GND.t147 sky130_fd_pr__nfet_01v8 ad=9e+11p pd=4.2e+06u as=0p ps=0u w=1.5e+06u l=150000u
X182 EESPFAL_s3_0/EESPFAL_NAND_v3_1/OUT_bar EESPFAL_s3_0/EESPFAL_NAND_v3_1/OUT CLK2.t16 CLK2.t15 sky130_fd_pr__pfet_01v8 ad=0p pd=0u as=0p ps=0u w=1.5e+06u l=150000u
X183 EESPFAL_s1_0/EESPFAL_NAND_v3_1/B EESPFAL_s1_0/EESPFAL_NAND_v3_1/B_bar CLK1.t13 CLK1.t12 sky130_fd_pr__pfet_01v8 ad=0p pd=0u as=0p ps=0u w=1.5e+06u l=150000u
X184 GND.t210 Dis1.t16 EESPFAL_s1_0/EESPFAL_NAND_v3_1/B_bar GND.t179 sky130_fd_pr__nfet_01v8 ad=0p pd=0u as=0p ps=0u w=1.5e+06u l=150000u
X185 EESPFAL_s2_0/EESPFAL_3in_NOR_v2_0/B EESPFAL_s2_0/EESPFAL_3in_NOR_v2_0/B_bar CLK2.t36 CLK2.t35 sky130_fd_pr__pfet_01v8 ad=0p pd=0u as=0p ps=0u w=1.5e+06u l=150000u
X186 EESPFAL_s0_0/EESPFAL_NAND_v3_0/B_bar x2.t2 a_3790_1471# GND.t8 sky130_fd_pr__nfet_01v8 ad=0p pd=0u as=0p ps=0u w=1.5e+06u l=150000u
X187 GND.t117 Dis2.t6 EESPFAL_s2_0/EESPFAL_NAND_v3_1/OUT GND.t116 sky130_fd_pr__nfet_01v8 ad=0p pd=0u as=1.8e+12p ps=8.4e+06u w=1.5e+06u l=150000u
X188 GND.t58 EESPFAL_s2_0/EESPFAL_NAND_v3_1/A_bar.t7 EESPFAL_s2_0/EESPFAL_NAND_v3_1/A.t1 GND.t57 sky130_fd_pr__nfet_01v8 ad=0p pd=0u as=0p ps=0u w=1.5e+06u l=150000u
X189 CLK1.t53 x1.t8 a_2730_n2029# GND.t41 sky130_fd_pr__nfet_01v8 ad=0p pd=0u as=9e+11p ps=4.2e+06u w=1.5e+06u l=150000u
X190 a_2730_n10570# x3_bar.t6 EESPFAL_s3_0/EESPFAL_NAND_v3_1/A.t1 GND.t73 sky130_fd_pr__nfet_01v8 ad=9e+11p pd=4.2e+06u as=0p ps=0u w=1.5e+06u l=150000u
X191 EESPFAL_s3_0/EESPFAL_INV4_0/A_bar x3_bar.t7 CLK1.t116 GND.t143 sky130_fd_pr__nfet_01v8 ad=0p pd=0u as=0p ps=0u w=1.5e+06u l=150000u
X192 a_6800_n1349# EESPFAL_s1_0/EESPFAL_NAND_v3_0/B EESPFAL_s1_0/EESPFAL_NAND_v3_0/OUT GND.t3 sky130_fd_pr__nfet_01v8 ad=9e+11p pd=4.2e+06u as=0p ps=0u w=1.5e+06u l=150000u
X193 CLK1.t172 x3_bar.t8 a_2881_n4169# GND.t258 sky130_fd_pr__nfet_01v8 ad=0p pd=0u as=9e+11p ps=4.2e+06u w=1.5e+06u l=150000u
X194 GND.t119 Dis2.t7 EESPFAL_s1_0/EESPFAL_NAND_v3_0/OUT GND.t118 sky130_fd_pr__nfet_01v8 ad=0p pd=0u as=0p ps=0u w=1.5e+06u l=150000u
X195 GND.t36 EESPFAL_s3_0/EESPFAL_NAND_v3_0/A_bar.t8 EESPFAL_s3_0/EESPFAL_NAND_v3_0/A.t3 GND.t35 sky130_fd_pr__nfet_01v8 ad=0p pd=0u as=0p ps=0u w=1.5e+06u l=150000u