* NGSPICE file created from EESPFAL_s2_flat.ext - technology: sky130A

.subckt EESPFAL_s2_flat GND x0 x0_bar x1 x1_bar x2 x2_bar x3 x3_bar Dis1 Dis3 Dis2
+ s2_bar s2 CLK2 CLK1 CLK3
X0 GND.t18 EESPFAL_3in_NOR_v2_0/C.t5 EESPFAL_3in_NOR_v2_0/C_bar.t3 GND.t17 sky130_fd_pr__nfet_01v8 ad=0p pd=0u as=0p ps=0u w=1.5e+06u l=150000u
X1 a_385_214# x3.t0 CLK1.t31 GND.t55 sky130_fd_pr__nfet_01v8 ad=9e+11p pd=4.2e+06u as=0p ps=0u w=1.5e+06u l=150000u
X2 EESPFAL_NAND_v3_1/A.t2 Dis1.t0 GND.t75 GND.t0 sky130_fd_pr__nfet_01v8 ad=0p pd=0u as=0p ps=0u w=1.5e+06u l=150000u
X3 EESPFAL_3in_NOR_v2_0/C.t2 EESPFAL_3in_NOR_v2_0/C_bar.t5 GND.t33 GND.t32 sky130_fd_pr__nfet_01v8 ad=0p pd=0u as=0p ps=0u w=1.5e+06u l=150000u
X4 CLK1.t38 EESPFAL_NAND_v3_0/A EESPFAL_NAND_v3_0/A_bar CLK1.t19 sky130_fd_pr__pfet_01v8 ad=0p pd=0u as=9e+11p ps=4.2e+06u w=1.5e+06u l=150000u
X5 CLK2.t22 EESPFAL_NAND_v3_1/OUT_bar.t6 EESPFAL_NAND_v3_1/OUT CLK2.t21 sky130_fd_pr__pfet_01v8 ad=0p pd=0u as=9e+11p ps=4.2e+06u w=1.5e+06u l=150000u
X6 CLK1.t24 EESPFAL_NAND_v3_1/A.t6 EESPFAL_NAND_v3_1/A_bar.t2 CLK1.t23 sky130_fd_pr__pfet_01v8 ad=0p pd=0u as=0p ps=0u w=1.5e+06u l=150000u
X7 CLK2.t24 EESPFAL_INV4_2/A EESPFAL_3in_NOR_v2_0/C.t1 GND.t54 sky130_fd_pr__nfet_01v8 ad=0p pd=0u as=0p ps=0u w=1.5e+06u l=150000u
X8 EESPFAL_INV4_2/A EESPFAL_INV4_2/A_bar CLK1.t3 CLK1.t2 sky130_fd_pr__pfet_01v8 ad=9e+11p pd=4.2e+06u as=0p ps=0u w=1.5e+06u l=150000u
X9 CLK1.t43 EESPFAL_NAND_v3_0/B_bar EESPFAL_NAND_v3_0/B CLK1.t42 sky130_fd_pr__pfet_01v8 ad=0p pd=0u as=9e+11p ps=4.2e+06u w=1.5e+06u l=150000u
X10 CLK1.t8 x1.t0 a_1645_n466# GND.t23 sky130_fd_pr__nfet_01v8 ad=0p pd=0u as=9e+11p ps=4.2e+06u w=1.5e+06u l=150000u
X11 a_1945_n466# x1_bar.t0 CLK1.t7 GND.t20 sky130_fd_pr__nfet_01v8 ad=9e+11p pd=4.2e+06u as=0p ps=0u w=1.5e+06u l=150000u
X12 GND.t36 s2_bar.t5 s2.t5 GND.t35 sky130_fd_pr__nfet_01v8 ad=0p pd=0u as=0p ps=0u w=1.5e+06u l=150000u
X13 EESPFAL_INV4_2/A EESPFAL_INV4_2/A_bar GND.t5 GND.t4 sky130_fd_pr__nfet_01v8 ad=1.8e+12p pd=8.4e+06u as=0p ps=0u w=1.5e+06u l=150000u
X14 GND.t30 EESPFAL_3in_NOR_v2_0/B EESPFAL_3in_NOR_v2_0/B_bar GND.t29 sky130_fd_pr__nfet_01v8 ad=0p pd=0u as=2.7e+12p ps=1.26e+07u w=1.5e+06u l=150000u
X15 EESPFAL_3in_NOR_v2_0/B EESPFAL_3in_NOR_v2_0/B_bar GND.t46 GND.t45 sky130_fd_pr__nfet_01v8 ad=1.8e+12p pd=8.4e+06u as=0p ps=0u w=1.5e+06u l=150000u
X16 CLK2.t14 EESPFAL_3in_NOR_v2_0/C_bar.t6 EESPFAL_3in_NOR_v2_0/C.t4 CLK2.t13 sky130_fd_pr__pfet_01v8 ad=0p pd=0u as=0p ps=0u w=1.5e+06u l=150000u
X17 CLK2.t26 EESPFAL_NAND_v3_0/B_bar EESPFAL_3in_NOR_v2_0/B_bar GND.t74 sky130_fd_pr__nfet_01v8 ad=0p pd=0u as=0p ps=0u w=1.5e+06u l=150000u
X18 s2_bar.t3 s2.t7 GND.t38 GND.t37 sky130_fd_pr__nfet_01v8 ad=0p pd=0u as=0p ps=0u w=1.5e+06u l=150000u
X19 a_1645_n2607# x2.t0 EESPFAL_INV4_2/A GND.t41 sky130_fd_pr__nfet_01v8 ad=9e+11p pd=4.2e+06u as=0p ps=0u w=1.5e+06u l=150000u
X20 EESPFAL_NAND_v3_1/B_bar EESPFAL_NAND_v3_1/B CLK1.t36 CLK1.t35 sky130_fd_pr__pfet_01v8 ad=9e+11p pd=4.2e+06u as=0p ps=0u w=1.5e+06u l=150000u
X21 GND.t66 EESPFAL_NAND_v3_1/B EESPFAL_NAND_v3_1/B_bar GND.t59 sky130_fd_pr__nfet_01v8 ad=0p pd=0u as=1.8e+12p ps=8.4e+06u w=1.5e+06u l=150000u
X22 EESPFAL_NAND_v3_1/OUT EESPFAL_NAND_v3_1/OUT_bar.t7 GND.t76 GND.t45 sky130_fd_pr__nfet_01v8 ad=1.8e+12p pd=8.4e+06u as=0p ps=0u w=1.5e+06u l=150000u
X23 CLK1.t44 x2_bar.t0 EESPFAL_INV4_2/A_bar GND.t78 sky130_fd_pr__nfet_01v8 ad=0p pd=0u as=3.6e+12p ps=1.68e+07u w=1.5e+06u l=150000u
X24 EESPFAL_NAND_v3_1/A_bar.t0 EESPFAL_NAND_v3_1/A.t7 GND.t87 GND.t6 sky130_fd_pr__nfet_01v8 ad=0p pd=0u as=0p ps=0u w=1.5e+06u l=150000u
X25 s2.t0 EESPFAL_3in_NOR_v2_0/C.t6 CLK3.t0 GND.t16 sky130_fd_pr__nfet_01v8 ad=0p pd=0u as=0p ps=0u w=1.5e+06u l=150000u
X26 CLK1.t20 EESPFAL_INV4_2/A EESPFAL_INV4_2/A_bar CLK1.t19 sky130_fd_pr__pfet_01v8 ad=0p pd=0u as=9e+11p ps=4.2e+06u w=1.5e+06u l=150000u
X27 EESPFAL_NAND_v3_0/B_bar Dis1.t1 GND.t63 GND.t62 sky130_fd_pr__nfet_01v8 ad=1.8e+12p pd=8.4e+06u as=0p ps=0u w=1.5e+06u l=150000u
X28 EESPFAL_NAND_v3_0/A_bar Dis1.t2 GND.t1 GND.t0 sky130_fd_pr__nfet_01v8 ad=2.7e+12p pd=1.26e+07u as=0p ps=0u w=1.5e+06u l=150000u
X29 a_5735_214# EESPFAL_NAND_v3_1/B EESPFAL_NAND_v3_1/OUT GND.t58 sky130_fd_pr__nfet_01v8 ad=9e+11p pd=4.2e+06u as=0p ps=0u w=1.5e+06u l=150000u
X30 a_85_n466# x0_bar.t0 EESPFAL_NAND_v3_0/A_bar GND.t19 sky130_fd_pr__nfet_01v8 ad=9e+11p pd=4.2e+06u as=0p ps=0u w=1.5e+06u l=150000u
X31 a_1645_214# x2_bar.t1 EESPFAL_NAND_v3_1/A_bar.t3 GND.t42 sky130_fd_pr__nfet_01v8 ad=9e+11p pd=4.2e+06u as=0p ps=0u w=1.5e+06u l=150000u
X32 a_85_214# x2_bar.t2 EESPFAL_NAND_v3_1/A.t1 GND.t19 sky130_fd_pr__nfet_01v8 ad=9e+11p pd=4.2e+06u as=0p ps=0u w=1.5e+06u l=150000u
X33 CLK3.t10 s2.t8 s2_bar.t0 CLK3.t9 sky130_fd_pr__pfet_01v8 ad=0p pd=0u as=0p ps=0u w=1.5e+06u l=150000u
X34 EESPFAL_NAND_v3_1/B EESPFAL_NAND_v3_1/B_bar CLK1.t52 CLK1.t51 sky130_fd_pr__pfet_01v8 ad=9e+11p pd=4.2e+06u as=0p ps=0u w=1.5e+06u l=150000u
X35 GND.t53 EESPFAL_INV4_2/A EESPFAL_INV4_2/A_bar GND.t52 sky130_fd_pr__nfet_01v8 ad=0p pd=0u as=0p ps=0u w=1.5e+06u l=150000u
X36 GND.t82 Dis1.t3 EESPFAL_NAND_v3_1/B GND.t48 sky130_fd_pr__nfet_01v8 ad=0p pd=0u as=1.8e+12p ps=8.4e+06u w=1.5e+06u l=150000u
X37 EESPFAL_3in_NOR_v2_0/C_bar.t1 Dis2.t0 GND.t14 GND.t13 sky130_fd_pr__nfet_01v8 ad=0p pd=0u as=0p ps=0u w=1.5e+06u l=150000u
X38 EESPFAL_3in_NOR_v2_0/B_bar EESPFAL_3in_NOR_v2_0/B CLK2.t10 CLK2.t9 sky130_fd_pr__pfet_01v8 ad=9e+11p pd=4.2e+06u as=0p ps=0u w=1.5e+06u l=150000u
X39 CLK2.t27 EESPFAL_NAND_v3_1/B_bar EESPFAL_NAND_v3_1/OUT_bar.t2 GND.t74 sky130_fd_pr__nfet_01v8 ad=0p pd=0u as=0p ps=0u w=1.5e+06u l=150000u
X40 a_1945_214# x3_bar.t0 CLK1.t11 GND.t20 sky130_fd_pr__nfet_01v8 ad=9e+11p pd=4.2e+06u as=0p ps=0u w=1.5e+06u l=150000u
X41 EESPFAL_NAND_v3_0/A_bar EESPFAL_NAND_v3_0/A CLK1.t37 CLK1.t17 sky130_fd_pr__pfet_01v8 ad=0p pd=0u as=0p ps=0u w=1.5e+06u l=150000u
X42 EESPFAL_NAND_v3_1/OUT_bar.t0 Dis2.t1 GND.t25 GND.t24 sky130_fd_pr__nfet_01v8 ad=0p pd=0u as=0p ps=0u w=1.5e+06u l=150000u
X43 CLK1.t28 EESPFAL_NAND_v3_0/B EESPFAL_NAND_v3_0/B_bar CLK1.t27 sky130_fd_pr__pfet_01v8 ad=0p pd=0u as=9e+11p ps=4.2e+06u w=1.5e+06u l=150000u
X44 EESPFAL_NAND_v3_0/B EESPFAL_NAND_v3_0/B_bar CLK1.t41 CLK1.t40 sky130_fd_pr__pfet_01v8 ad=0p pd=0u as=0p ps=0u w=1.5e+06u l=150000u
X45 GND.t65 Dis2.t2 EESPFAL_3in_NOR_v2_0/B GND.t64 sky130_fd_pr__nfet_01v8 ad=0p pd=0u as=0p ps=0u w=1.5e+06u l=150000u
X46 EESPFAL_3in_NOR_v2_0/C_bar.t0 EESPFAL_INV4_2/A_bar CLK2.t0 GND.t3 sky130_fd_pr__nfet_01v8 ad=0p pd=0u as=0p ps=0u w=1.5e+06u l=150000u
X47 EESPFAL_3in_NOR_v2_0/B_bar EESPFAL_NAND_v3_0/A_bar CLK2.t1 GND.t8 sky130_fd_pr__nfet_01v8 ad=0p pd=0u as=0p ps=0u w=1.5e+06u l=150000u
X48 CLK2.t6 EESPFAL_3in_NOR_v2_0/C.t7 EESPFAL_3in_NOR_v2_0/C_bar.t4 CLK2.t5 sky130_fd_pr__pfet_01v8 ad=0p pd=0u as=0p ps=0u w=1.5e+06u l=150000u
X49 s2.t2 Dis3.t0 GND.t57 GND.t56 sky130_fd_pr__nfet_01v8 ad=0p pd=0u as=0p ps=0u w=1.5e+06u l=150000u
X50 EESPFAL_NAND_v3_1/A.t4 EESPFAL_NAND_v3_1/A_bar.t6 CLK1.t48 CLK1.t47 sky130_fd_pr__pfet_01v8 ad=0p pd=0u as=0p ps=0u w=1.5e+06u l=150000u
X51 GND.t86 EESPFAL_NAND_v3_1/A_bar.t7 EESPFAL_NAND_v3_1/A.t5 GND.t67 sky130_fd_pr__nfet_01v8 ad=0p pd=0u as=0p ps=0u w=1.5e+06u l=150000u
X52 EESPFAL_3in_NOR_v2_0/C.t0 EESPFAL_3in_NOR_v2_0/C_bar.t7 CLK2.t12 CLK2.t11 sky130_fd_pr__pfet_01v8 ad=0p pd=0u as=0p ps=0u w=1.5e+06u l=150000u
X53 EESPFAL_NAND_v3_0/A EESPFAL_NAND_v3_0/A_bar GND.t7 GND.t6 sky130_fd_pr__nfet_01v8 ad=2.7e+12p pd=1.26e+07u as=0p ps=0u w=1.5e+06u l=150000u
X54 CLK3.t2 EESPFAL_NAND_v3_1/OUT_bar.t8 a_6065_n2606# GND.t2 sky130_fd_pr__nfet_01v8 ad=0p pd=0u as=9e+11p ps=4.2e+06u w=1.5e+06u l=150000u
X55 CLK1.t10 x3_bar.t1 a_1945_n2607# GND.t40 sky130_fd_pr__nfet_01v8 ad=0p pd=0u as=9e+11p ps=4.2e+06u w=1.5e+06u l=150000u
X56 GND.t68 EESPFAL_NAND_v3_0/A EESPFAL_NAND_v3_0/A_bar GND.t67 sky130_fd_pr__nfet_01v8 ad=0p pd=0u as=0p ps=0u w=1.5e+06u l=150000u
X57 GND.t60 EESPFAL_NAND_v3_0/B EESPFAL_NAND_v3_0/B_bar GND.t59 sky130_fd_pr__nfet_01v8 ad=0p pd=0u as=0p ps=0u w=1.5e+06u l=150000u
X58 s2.t6 EESPFAL_NAND_v3_1/OUT CLK3.t11 GND.t85 sky130_fd_pr__nfet_01v8 ad=0p pd=0u as=0p ps=0u w=1.5e+06u l=150000u
X59 EESPFAL_NAND_v3_0/B EESPFAL_NAND_v3_0/B_bar GND.t73 GND.t72 sky130_fd_pr__nfet_01v8 ad=1.8e+12p pd=8.4e+06u as=0p ps=0u w=1.5e+06u l=150000u
X60 EESPFAL_NAND_v3_0/B_bar x2.t1 CLK1.t22 GND.t47 sky130_fd_pr__nfet_01v8 ad=0p pd=0u as=0p ps=0u w=1.5e+06u l=150000u
X61 EESPFAL_NAND_v3_1/A_bar.t4 x2.t2 a_1945_214# GND.t43 sky130_fd_pr__nfet_01v8 ad=0p pd=0u as=0p ps=0u w=1.5e+06u l=150000u
X62 CLK3.t1 EESPFAL_3in_NOR_v2_0/B s2.t1 GND.t28 sky130_fd_pr__nfet_01v8 ad=0p pd=0u as=0p ps=0u w=1.5e+06u l=150000u
X63 EESPFAL_INV4_2/A_bar EESPFAL_INV4_2/A CLK1.t18 CLK1.t17 sky130_fd_pr__pfet_01v8 ad=0p pd=0u as=0p ps=0u w=1.5e+06u l=150000u
X64 GND.t84 EESPFAL_NAND_v3_1/OUT EESPFAL_NAND_v3_1/OUT_bar.t5 GND.t29 sky130_fd_pr__nfet_01v8 ad=0p pd=0u as=0p ps=0u w=1.5e+06u l=150000u
X65 a_5735_n466# EESPFAL_NAND_v3_0/B EESPFAL_3in_NOR_v2_0/B GND.t58 sky130_fd_pr__nfet_01v8 ad=9e+11p pd=4.2e+06u as=0p ps=0u w=1.5e+06u l=150000u
X66 EESPFAL_3in_NOR_v2_0/B_bar Dis2.t3 GND.t77 GND.t24 sky130_fd_pr__nfet_01v8 ad=0p pd=0u as=0p ps=0u w=1.5e+06u l=150000u
X67 CLK3.t6 s2_bar.t6 s2.t3 CLK3.t5 sky130_fd_pr__pfet_01v8 ad=0p pd=0u as=0p ps=0u w=1.5e+06u l=150000u
X68 CLK1.t6 x1_bar.t1 EESPFAL_INV4_2/A_bar GND.t10 sky130_fd_pr__nfet_01v8 ad=0p pd=0u as=0p ps=0u w=1.5e+06u l=150000u
X69 CLK1.t5 EESPFAL_NAND_v3_0/A_bar EESPFAL_NAND_v3_0/A CLK1.t0 sky130_fd_pr__pfet_01v8 ad=0p pd=0u as=9e+11p ps=4.2e+06u w=1.5e+06u l=150000u
X70 CLK1.t32 x1_bar.t2 a_85_n466# GND.t51 sky130_fd_pr__nfet_01v8 ad=0p pd=0u as=0p ps=0u w=1.5e+06u l=150000u
X71 CLK1.t16 x3_bar.t2 a_85_214# GND.t51 sky130_fd_pr__nfet_01v8 ad=0p pd=0u as=0p ps=0u w=1.5e+06u l=150000u
X72 s2_bar.t4 s2.t9 CLK3.t8 CLK3.t7 sky130_fd_pr__pfet_01v8 ad=0p pd=0u as=0p ps=0u w=1.5e+06u l=150000u
X73 EESPFAL_INV4_2/A_bar Dis1.t4 GND.t89 GND.t88 sky130_fd_pr__nfet_01v8 ad=0p pd=0u as=0p ps=0u w=1.5e+06u l=150000u
X74 EESPFAL_INV4_2/A_bar x3.t1 CLK1.t29 GND.t81 sky130_fd_pr__nfet_01v8 ad=0p pd=0u as=0p ps=0u w=1.5e+06u l=150000u
X75 CLK1.t34 EESPFAL_NAND_v3_1/B EESPFAL_NAND_v3_1/B_bar CLK1.t33 sky130_fd_pr__pfet_01v8 ad=0p pd=0u as=0p ps=0u w=1.5e+06u l=150000u
X76 EESPFAL_NAND_v3_1/OUT EESPFAL_NAND_v3_1/OUT_bar.t9 CLK2.t20 CLK2.t19 sky130_fd_pr__pfet_01v8 ad=0p pd=0u as=0p ps=0u w=1.5e+06u l=150000u
X77 GND.t80 Dis2.t4 EESPFAL_NAND_v3_1/OUT GND.t64 sky130_fd_pr__nfet_01v8 ad=0p pd=0u as=0p ps=0u w=1.5e+06u l=150000u
X78 CLK2.t18 EESPFAL_3in_NOR_v2_0/B_bar EESPFAL_3in_NOR_v2_0/B CLK2.t17 sky130_fd_pr__pfet_01v8 ad=0p pd=0u as=9e+11p ps=4.2e+06u w=1.5e+06u l=150000u
X79 EESPFAL_NAND_v3_1/A_bar.t1 EESPFAL_NAND_v3_1/A.t8 CLK1.t15 CLK1.t14 sky130_fd_pr__pfet_01v8 ad=0p pd=0u as=0p ps=0u w=1.5e+06u l=150000u
X80 GND.t34 Dis1.t5 EESPFAL_NAND_v3_1/A_bar.t5 GND.t11 sky130_fd_pr__nfet_01v8 ad=0p pd=0u as=0p ps=0u w=1.5e+06u l=150000u
X81 CLK2.t2 EESPFAL_NAND_v3_1/A.t9 a_5735_214# GND.t61 sky130_fd_pr__nfet_01v8 ad=0p pd=0u as=0p ps=0u w=1.5e+06u l=150000u
X82 CLK1.t30 x3.t2 a_1645_214# GND.t23 sky130_fd_pr__nfet_01v8 ad=0p pd=0u as=0p ps=0u w=1.5e+06u l=150000u
X83 EESPFAL_NAND_v3_0/B_bar EESPFAL_NAND_v3_0/B CLK1.t26 CLK1.t25 sky130_fd_pr__pfet_01v8 ad=0p pd=0u as=0p ps=0u w=1.5e+06u l=150000u
X84 EESPFAL_NAND_v3_1/B_bar x1.t1 CLK1.t12 GND.t47 sky130_fd_pr__nfet_01v8 ad=0p pd=0u as=0p ps=0u w=1.5e+06u l=150000u
X85 EESPFAL_NAND_v3_1/A.t0 x2.t3 a_385_214# GND.t9 sky130_fd_pr__nfet_01v8 ad=0p pd=0u as=0p ps=0u w=1.5e+06u l=150000u
X86 EESPFAL_NAND_v3_0/A x0.t0 a_1945_n466# GND.t43 sky130_fd_pr__nfet_01v8 ad=0p pd=0u as=0p ps=0u w=1.5e+06u l=150000u
X87 CLK1.t50 EESPFAL_NAND_v3_1/B_bar EESPFAL_NAND_v3_1/B CLK1.t49 sky130_fd_pr__pfet_01v8 ad=0p pd=0u as=0p ps=0u w=1.5e+06u l=150000u
X88 GND.t12 Dis1.t6 EESPFAL_NAND_v3_0/A GND.t11 sky130_fd_pr__nfet_01v8 ad=0p pd=0u as=0p ps=0u w=1.5e+06u l=150000u
X89 GND.t71 Dis2.t5 EESPFAL_3in_NOR_v2_0/C.t3 GND.t70 sky130_fd_pr__nfet_01v8 ad=0p pd=0u as=0p ps=0u w=1.5e+06u l=150000u
X90 EESPFAL_3in_NOR_v2_0/C_bar.t2 EESPFAL_3in_NOR_v2_0/C.t8 CLK2.t4 CLK2.t3 sky130_fd_pr__pfet_01v8 ad=0p pd=0u as=0p ps=0u w=1.5e+06u l=150000u
X91 CLK1.t1 EESPFAL_INV4_2/A_bar EESPFAL_INV4_2/A CLK1.t0 sky130_fd_pr__pfet_01v8 ad=0p pd=0u as=0p ps=0u w=1.5e+06u l=150000u
X92 GND.t49 Dis1.t7 EESPFAL_NAND_v3_0/B GND.t48 sky130_fd_pr__nfet_01v8 ad=0p pd=0u as=0p ps=0u w=1.5e+06u l=150000u
X93 EESPFAL_NAND_v3_1/OUT_bar.t1 EESPFAL_NAND_v3_1/A_bar.t8 CLK2.t23 GND.t8 sky130_fd_pr__nfet_01v8 ad=0p pd=0u as=0p ps=0u w=1.5e+06u l=150000u
X94 EESPFAL_NAND_v3_1/OUT_bar.t3 EESPFAL_NAND_v3_1/OUT CLK2.t31 CLK2.t30 sky130_fd_pr__pfet_01v8 ad=0p pd=0u as=0p ps=0u w=1.5e+06u l=150000u
X95 EESPFAL_NAND_v3_1/B_bar Dis1.t8 GND.t79 GND.t62 sky130_fd_pr__nfet_01v8 ad=0p pd=0u as=0p ps=0u w=1.5e+06u l=150000u
X96 a_6065_n2606# EESPFAL_3in_NOR_v2_0/B_bar a_5915_n2606# GND.t44 sky130_fd_pr__nfet_01v8 ad=0p pd=0u as=9e+11p ps=4.2e+06u w=1.5e+06u l=150000u
X97 CLK2.t25 EESPFAL_NAND_v3_0/A a_5735_n466# GND.t61 sky130_fd_pr__nfet_01v8 ad=0p pd=0u as=0p ps=0u w=1.5e+06u l=150000u
X98 a_385_n466# x1.t2 CLK1.t21 GND.t55 sky130_fd_pr__nfet_01v8 ad=9e+11p pd=4.2e+06u as=0p ps=0u w=1.5e+06u l=150000u
X99 GND.t22 Dis1.t9 EESPFAL_INV4_2/A GND.t21 sky130_fd_pr__nfet_01v8 ad=0p pd=0u as=0p ps=0u w=1.5e+06u l=150000u
X100 a_1645_n466# x0_bar.t1 EESPFAL_NAND_v3_0/A GND.t42 sky130_fd_pr__nfet_01v8 ad=0p pd=0u as=0p ps=0u w=1.5e+06u l=150000u
X101 EESPFAL_NAND_v3_0/A_bar x0.t1 a_385_n466# GND.t9 sky130_fd_pr__nfet_01v8 ad=0p pd=0u as=0p ps=0u w=1.5e+06u l=150000u
X102 a_5915_n2606# EESPFAL_3in_NOR_v2_0/C_bar.t8 s2_bar.t2 GND.t31 sky130_fd_pr__nfet_01v8 ad=0p pd=0u as=0p ps=0u w=1.5e+06u l=150000u
X103 GND.t27 Dis3.t1 s2_bar.t1 GND.t26 sky130_fd_pr__nfet_01v8 ad=0p pd=0u as=0p ps=0u w=1.5e+06u l=150000u
X104 a_1795_n2607# x0.t2 a_1645_n2607# GND.t15 sky130_fd_pr__nfet_01v8 ad=9e+11p pd=4.2e+06u as=0p ps=0u w=1.5e+06u l=150000u
X105 s2.t4 s2_bar.t7 CLK3.t4 CLK3.t3 sky130_fd_pr__pfet_01v8 ad=0p pd=0u as=0p ps=0u w=1.5e+06u l=150000u
X106 CLK1.t46 EESPFAL_NAND_v3_1/A_bar.t9 EESPFAL_NAND_v3_1/A.t3 CLK1.t45 sky130_fd_pr__pfet_01v8 ad=0p pd=0u as=0p ps=0u w=1.5e+06u l=150000u
X107 EESPFAL_INV4_2/A_bar x0_bar.t2 CLK1.t39 GND.t69 sky130_fd_pr__nfet_01v8 ad=0p pd=0u as=0p ps=0u w=1.5e+06u l=150000u
X108 CLK1.t9 x2_bar.t3 EESPFAL_NAND_v3_0/B GND.t39 sky130_fd_pr__nfet_01v8 ad=0p pd=0u as=0p ps=0u w=1.5e+06u l=150000u
X109 EESPFAL_NAND_v3_1/B EESPFAL_NAND_v3_1/B_bar GND.t83 GND.t72 sky130_fd_pr__nfet_01v8 ad=0p pd=0u as=0p ps=0u w=1.5e+06u l=150000u
X110 EESPFAL_NAND_v3_0/A EESPFAL_NAND_v3_0/A_bar CLK1.t4 CLK1.t2 sky130_fd_pr__pfet_01v8 ad=0p pd=0u as=0p ps=0u w=1.5e+06u l=150000u
X111 CLK1.t13 x1_bar.t3 EESPFAL_NAND_v3_1/B GND.t39 sky130_fd_pr__nfet_01v8 ad=0p pd=0u as=0p ps=0u w=1.5e+06u l=150000u
X112 a_1945_n2607# x1.t3 a_1795_n2607# GND.t50 sky130_fd_pr__nfet_01v8 ad=0p pd=0u as=0p ps=0u w=1.5e+06u l=150000u
X113 CLK2.t8 EESPFAL_3in_NOR_v2_0/B EESPFAL_3in_NOR_v2_0/B_bar CLK2.t7 sky130_fd_pr__pfet_01v8 ad=0p pd=0u as=0p ps=0u w=1.5e+06u l=150000u
X114 CLK2.t29 EESPFAL_NAND_v3_1/OUT EESPFAL_NAND_v3_1/OUT_bar.t4 CLK2.t28 sky130_fd_pr__pfet_01v8 ad=0p pd=0u as=0p ps=0u w=1.5e+06u l=150000u
X115 EESPFAL_3in_NOR_v2_0/B EESPFAL_3in_NOR_v2_0/B_bar CLK2.t16 CLK2.t15 sky130_fd_pr__pfet_01v8 ad=0p pd=0u as=0p ps=0u w=1.5e+06u l=150000u
R0 EESPFAL_3in_NOR_v2_0/C.t7 EESPFAL_3in_NOR_v2_0/C.t8 819.4
R1 EESPFAL_3in_NOR_v2_0/C.n7 EESPFAL_3in_NOR_v2_0/C.t6 775.706
R2 EESPFAL_3in_NOR_v2_0/C.n2 EESPFAL_3in_NOR_v2_0/C.t7 514.133
R3 EESPFAL_3in_NOR_v2_0/C.n2 EESPFAL_3in_NOR_v2_0/C.t5 305.266
R4 EESPFAL_3in_NOR_v2_0/C.n4 EESPFAL_3in_NOR_v2_0/C.n1 166.734
R5 EESPFAL_3in_NOR_v2_0/C EESPFAL_3in_NOR_v2_0/C.n7 163.511
R6 EESPFAL_3in_NOR_v2_0/C.n6 EESPFAL_3in_NOR_v2_0/C.n5 102.4
R7 EESPFAL_3in_NOR_v2_0/C.n7 EESPFAL_3in_NOR_v2_0/C.n6 88.292
R8 EESPFAL_3in_NOR_v2_0/C.n6 EESPFAL_3in_NOR_v2_0/C.t1 81.939
R9 EESPFAL_3in_NOR_v2_0/C.n3 EESPFAL_3in_NOR_v2_0/C.n2 76
R10 EESPFAL_3in_NOR_v2_0/C.n4 EESPFAL_3in_NOR_v2_0/C.n3 57.6
R11 EESPFAL_3in_NOR_v2_0/C.n5 EESPFAL_3in_NOR_v2_0/C.n0 51.537
R12 EESPFAL_3in_NOR_v2_0/C.n1 EESPFAL_3in_NOR_v2_0/C.t4 39.4
R13 EESPFAL_3in_NOR_v2_0/C.n1 EESPFAL_3in_NOR_v2_0/C.t0 39.4
R14 EESPFAL_3in_NOR_v2_0/C.n0 EESPFAL_3in_NOR_v2_0/C.t3 24
R15 EESPFAL_3in_NOR_v2_0/C.n0 EESPFAL_3in_NOR_v2_0/C.t2 24
R16 EESPFAL_3in_NOR_v2_0/C.n5 EESPFAL_3in_NOR_v2_0/C.n4 6.4
R17 EESPFAL_3in_NOR_v2_0/C.n3 EESPFAL_INV4_2/OUT_bar 3.2
R18 EESPFAL_3in_NOR_v2_0/C_bar.t7 EESPFAL_3in_NOR_v2_0/C_bar.t6 819.4
R19 EESPFAL_3in_NOR_v2_0/C_bar.n5 EESPFAL_3in_NOR_v2_0/C_bar.t5 506.1
R20 EESPFAL_3in_NOR_v2_0/C_bar.n5 EESPFAL_3in_NOR_v2_0/C_bar.t7 313.3
R21 EESPFAL_3in_NOR_v2_0/C_bar.n0 EESPFAL_3in_NOR_v2_0/C_bar.t8 305.997
R22 EESPFAL_INV4_2/OUT EESPFAL_3in_NOR_v2_0/C_bar.n0 210.945
R23 EESPFAL_3in_NOR_v2_0/C_bar.n3 EESPFAL_3in_NOR_v2_0/C_bar.t0 187.539
R24 EESPFAL_3in_NOR_v2_0/C_bar.n4 EESPFAL_3in_NOR_v2_0/C_bar.n1 128.334
R25 EESPFAL_3in_NOR_v2_0/C_bar.n0 EESPFAL_3in_NOR_v2_0/C_bar 115.2
R26 EESPFAL_3in_NOR_v2_0/C_bar.n3 EESPFAL_3in_NOR_v2_0/C_bar.n2 57.937
R27 EESPFAL_3in_NOR_v2_0/C_bar.n6 EESPFAL_3in_NOR_v2_0/C_bar.n4 57.6
R28 EESPFAL_3in_NOR_v2_0/C_bar.n4 EESPFAL_3in_NOR_v2_0/C_bar.n3 41.6
R29 EESPFAL_3in_NOR_v2_0/C_bar.n1 EESPFAL_3in_NOR_v2_0/C_bar.t4 39.4
R30 EESPFAL_3in_NOR_v2_0/C_bar.n1 EESPFAL_3in_NOR_v2_0/C_bar.t2 39.4
R31 EESPFAL_3in_NOR_v2_0/C_bar.n2 EESPFAL_3in_NOR_v2_0/C_bar.t3 24
R32 EESPFAL_3in_NOR_v2_0/C_bar.n2 EESPFAL_3in_NOR_v2_0/C_bar.t1 24
R33 EESPFAL_3in_NOR_v2_0/C_bar.n6 EESPFAL_3in_NOR_v2_0/C_bar.n5 8.764
R34 EESPFAL_INV4_2/OUT EESPFAL_3in_NOR_v2_0/C_bar.n6 4.65
R35 GND.n413 GND.n412 341.085
R36 GND.n421 GND.n253 341.085
R37 GND.n423 GND.n422 341.085
R38 GND.n432 GND.n247 341.085
R39 GND.n433 GND.n432 341.085
R40 GND.n434 GND.n433 341.085
R41 GND.n445 GND.n241 341.085
R42 GND.n448 GND.n447 341.085
R43 GND.n458 GND.n457 341.085
R44 GND.n460 GND.n458 341.085
R45 GND.n460 GND.n459 341.085
R46 GND.n469 GND.n468 341.085
R47 GND.n471 GND.n470 341.085
R48 GND.n480 GND.n479 341.085
R49 GND.n319 GND.n318 341.085
R50 GND.n320 GND.n305 341.085
R51 GND.n329 GND.n305 341.085
R52 GND.n330 GND.n329 341.085
R53 GND.n332 GND.n331 341.085
R54 GND.n342 GND.n341 341.085
R55 GND.n351 GND.n292 341.085
R56 GND.n352 GND.n351 341.085
R57 GND.n353 GND.n352 341.085
R58 GND.n361 GND.n286 341.085
R59 GND.n373 GND.n372 341.085
R60 GND.n375 GND.n373 341.085
R61 GND.n375 GND.n374 341.085
R62 GND.n385 GND.n384 341.085
R63 GND.n395 GND.n268 341.085
R64 GND.n397 GND.n396 341.085
R65 GND.n397 GND.n262 341.085
R66 GND.n405 GND.n262 341.085
R67 GND.t42 GND.n247 319.767
R68 GND.n446 GND.t6 319.767
R69 GND.t67 GND.n446 319.767
R70 GND.n459 GND.t9 319.767
R71 GND.n320 GND.t58 319.767
R72 GND.n340 GND.t45 319.767
R73 GND.t29 GND.n340 319.767
R74 GND.n353 GND.t8 319.767
R75 GND.n372 GND.t39 319.767
R76 GND.n386 GND.t72 319.767
R77 GND.n386 GND.t59 319.767
R78 GND.t47 GND.n405 319.767
R79 GND.n422 GND.t23 277.131
R80 GND.t11 GND.n241 277.131
R81 GND.n447 GND.t0 277.131
R82 GND.t55 GND.n469 277.131
R83 GND.n318 GND.t61 277.131
R84 GND.n332 GND.t64 277.131
R85 GND.n342 GND.t24 277.131
R86 GND.t74 GND.n361 277.131
R87 GND.n384 GND.t48 277.131
R88 GND.t62 GND.n395 277.131
R89 GND.n167 GND.t40 267.309
R90 GND.n484 GND.t78 267.309
R91 GND.t20 GND.n253 234.496
R92 GND.n470 GND.t51 234.496
R93 GND.n93 GND.t85 192.984
R94 GND.n3 GND.t2 192.984
R95 GND.n412 GND.t43 191.86
R96 GND.t19 GND.n480 191.86
R97 GND.n175 GND.t50 185.81
R98 GND.n492 GND.t69 185.81
R99 GND.t43 GND.n411 158.378
R100 GND.n481 GND.t19 158.378
R101 GND.n411 GND.n258 157.6
R102 GND.n414 GND.n258 157.6
R103 GND.n414 GND.n254 157.6
R104 GND.n420 GND.n254 157.6
R105 GND.n420 GND.n252 157.6
R106 GND.n424 GND.n252 157.6
R107 GND.n424 GND.n248 157.6
R108 GND.n431 GND.n248 157.6
R109 GND.n431 GND.n246 157.6
R110 GND.n435 GND.n246 157.6
R111 GND.n435 GND.n242 157.6
R112 GND.n444 GND.n242 157.6
R113 GND.n444 GND.n240 157.6
R114 GND.n449 GND.n240 157.6
R115 GND.n449 GND.n237 157.6
R116 GND.n456 GND.n237 157.6
R117 GND.n456 GND.n236 157.6
R118 GND.n461 GND.n236 157.6
R119 GND.n461 GND.n232 157.6
R120 GND.n467 GND.n232 157.6
R121 GND.n467 GND.n231 157.6
R122 GND.n472 GND.n231 157.6
R123 GND.n472 GND.n226 157.6
R124 GND.n478 GND.n226 157.6
R125 GND.n478 GND.n225 157.6
R126 GND.n481 GND.n225 157.6
R127 GND.n317 GND.n311 157.6
R128 GND.n317 GND.n310 157.6
R129 GND.n321 GND.n310 157.6
R130 GND.n321 GND.n306 157.6
R131 GND.n328 GND.n306 157.6
R132 GND.n328 GND.n304 157.6
R133 GND.n333 GND.n304 157.6
R134 GND.n333 GND.n298 157.6
R135 GND.n339 GND.n298 157.6
R136 GND.n339 GND.n297 157.6
R137 GND.n343 GND.n297 157.6
R138 GND.n343 GND.n293 157.6
R139 GND.n350 GND.n293 157.6
R140 GND.n350 GND.n291 157.6
R141 GND.n354 GND.n291 157.6
R142 GND.n354 GND.n287 157.6
R143 GND.n360 GND.n287 157.6
R144 GND.n360 GND.n285 157.6
R145 GND.n371 GND.n281 157.6
R146 GND.n371 GND.n280 157.6
R147 GND.n376 GND.n280 157.6
R148 GND.n376 GND.n276 157.6
R149 GND.n383 GND.n276 157.6
R150 GND.n383 GND.n275 157.6
R151 GND.n387 GND.n275 157.6
R152 GND.n387 GND.n269 157.6
R153 GND.n394 GND.n269 157.6
R154 GND.n394 GND.n267 157.6
R155 GND.n398 GND.n267 157.6
R156 GND.n398 GND.n263 157.6
R157 GND.n404 GND.n263 157.6
R158 GND.n404 GND.n261 157.6
R159 GND.n314 GND.n313 118.661
R160 GND.n363 GND.n362 115.922
R161 GND.n366 GND.n365 115.922
R162 GND.n407 GND.n406 115.922
R163 GND.n118 GND.t70 111.486
R164 GND.n142 GND.t13 111.486
R165 GND.n11 GND.t44 111.486
R166 GND.n36 GND.t26 111.486
R167 GND.n60 GND.t56 111.486
R168 GND.n85 GND.t28 111.486
R169 GND.n183 GND.t15 111.486
R170 GND.n208 GND.t21 111.486
R171 GND.n525 GND.t88 111.486
R172 GND.n500 GND.t10 111.486
R173 GND.n413 GND.t20 106.589
R174 GND.n479 GND.t51 106.589
R175 GND.n313 GND.t61 70.155
R176 GND.n362 GND.t74 70.155
R177 GND.t23 GND.n421 63.953
R178 GND.n434 GND.t11 63.953
R179 GND.n457 GND.t0 63.953
R180 GND.n471 GND.t55 63.953
R181 GND.t64 GND.n330 63.953
R182 GND.t24 GND.n292 63.953
R183 GND.n374 GND.t48 63.953
R184 GND.n396 GND.t62 63.953
R185 GND.n159 GND.t3 44.336
R186 GND.n101 GND.t54 44.336
R187 GND GND.n482 37.956
R188 GND.n126 GND.t32 37.162
R189 GND.n134 GND.t17 37.162
R190 GND.n19 GND.t31 37.162
R191 GND.n44 GND.t37 37.162
R192 GND.n52 GND.t35 37.162
R193 GND.n77 GND.t16 37.162
R194 GND.n191 GND.t41 37.162
R195 GND.n216 GND.t4 37.162
R196 GND.n533 GND.t52 37.162
R197 GND.n508 GND.t81 37.162
R198 GND.n483 GND 29.511
R199 GND.n325 GND.t80 29.103
R200 GND.n347 GND.t25 29.103
R201 GND.n379 GND.t82 29.103
R202 GND.n265 GND.t79 29.103
R203 GND.n244 GND.t34 29.103
R204 GND.n453 GND.t75 29.103
R205 GND.n35 GND.t27 29.103
R206 GND.n64 GND.t57 29.103
R207 GND.n117 GND.t71 29.103
R208 GND.n146 GND.t14 29.103
R209 GND.n207 GND.t22 29.103
R210 GND.n524 GND.t89 29.103
R211 GND.n325 GND.t65 29.102
R212 GND.n347 GND.t77 29.102
R213 GND.n379 GND.t49 29.102
R214 GND.n265 GND.t63 29.102
R215 GND.n244 GND.t12 29.102
R216 GND.n453 GND.t1 29.102
R217 GND.n365 GND.t39 27.519
R218 GND.n406 GND.t47 27.519
R219 GND.n440 GND.t7 24
R220 GND.n440 GND.t68 24
R221 GND.n439 GND.t87 24
R222 GND.n439 GND.t86 24
R223 GND.n301 GND.t46 24
R224 GND.n301 GND.t30 24
R225 GND.n300 GND.t76 24
R226 GND.n300 GND.t84 24
R227 GND.n272 GND.t73 24
R228 GND.n272 GND.t60 24
R229 GND.n271 GND.t83 24
R230 GND.n271 GND.t66 24
R231 GND.n0 GND.t5 24
R232 GND.n0 GND.t53 24
R233 GND.n1 GND.t33 24
R234 GND.n1 GND.t18 24
R235 GND.n2 GND.t38 24
R236 GND.n2 GND.t36 24
R237 GND.n423 GND.t42 21.317
R238 GND.t6 GND.n445 21.317
R239 GND.n448 GND.t67 21.317
R240 GND.n468 GND.t9 21.317
R241 GND.t58 GND.n319 21.317
R242 GND.n331 GND.t45 21.317
R243 GND.n341 GND.t29 21.317
R244 GND.t8 GND.n286 21.317
R245 GND.t72 GND.n385 21.317
R246 GND.t59 GND.n268 21.317
R247 GND.n316 GND.n312 12.8
R248 GND.n316 GND.n309 12.8
R249 GND.n322 GND.n309 12.8
R250 GND.n322 GND.n307 12.8
R251 GND.n327 GND.n307 12.8
R252 GND.n327 GND.n303 12.8
R253 GND.n334 GND.n303 12.8
R254 GND.n334 GND.n299 12.8
R255 GND.n338 GND.n299 12.8
R256 GND.n338 GND.n296 12.8
R257 GND.n344 GND.n296 12.8
R258 GND.n344 GND.n294 12.8
R259 GND.n349 GND.n294 12.8
R260 GND.n349 GND.n290 12.8
R261 GND.n355 GND.n290 12.8
R262 GND.n355 GND.n288 12.8
R263 GND.n359 GND.n288 12.8
R264 GND.n359 GND.n284 12.8
R265 GND.n363 GND.n284 12.8
R266 GND.n366 GND.n282 12.8
R267 GND.n370 GND.n282 12.8
R268 GND.n370 GND.n279 12.8
R269 GND.n377 GND.n279 12.8
R270 GND.n377 GND.n277 12.8
R271 GND.n382 GND.n277 12.8
R272 GND.n382 GND.n274 12.8
R273 GND.n388 GND.n274 12.8
R274 GND.n388 GND.n270 12.8
R275 GND.n393 GND.n270 12.8
R276 GND.n393 GND.n266 12.8
R277 GND.n399 GND.n266 12.8
R278 GND.n399 GND.n264 12.8
R279 GND.n403 GND.n264 12.8
R280 GND.n403 GND.n260 12.8
R281 GND.n407 GND.n260 12.8
R282 GND.n410 GND.n257 12.8
R283 GND.n415 GND.n257 12.8
R284 GND.n415 GND.n255 12.8
R285 GND.n419 GND.n255 12.8
R286 GND.n419 GND.n251 12.8
R287 GND.n425 GND.n251 12.8
R288 GND.n425 GND.n249 12.8
R289 GND.n430 GND.n249 12.8
R290 GND.n430 GND.n245 12.8
R291 GND.n436 GND.n245 12.8
R292 GND.n436 GND.n243 12.8
R293 GND.n443 GND.n243 12.8
R294 GND.n443 GND.n239 12.8
R295 GND.n450 GND.n239 12.8
R296 GND.n450 GND.n238 12.8
R297 GND.n455 GND.n238 12.8
R298 GND.n455 GND.n235 12.8
R299 GND.n462 GND.n235 12.8
R300 GND.n462 GND.n233 12.8
R301 GND.n466 GND.n233 12.8
R302 GND.n466 GND.n230 12.8
R303 GND.n473 GND.n230 12.8
R304 GND.n473 GND.n227 12.8
R305 GND.n477 GND.n227 12.8
R306 GND.n477 GND.n228 12.8
R307 GND.n136 GND.n133 12.8
R308 GND.n54 GND.n51 12.8
R309 GND.n312 GND.n311 9.154
R310 GND.n282 GND.n281 9.154
R311 GND.n371 GND.n370 9.154
R312 GND.n372 GND.n371 9.154
R313 GND.n280 GND.n279 9.154
R314 GND.n373 GND.n280 9.154
R315 GND.n377 GND.n376 9.154
R316 GND.n376 GND.n375 9.154
R317 GND.n277 GND.n276 9.154
R318 GND.n374 GND.n276 9.154
R319 GND.n383 GND.n382 9.154
R320 GND.n384 GND.n383 9.154
R321 GND.n275 GND.n274 9.154
R322 GND.n385 GND.n275 9.154
R323 GND.n388 GND.n387 9.154
R324 GND.n387 GND.n386 9.154
R325 GND.n270 GND.n269 9.154
R326 GND.n269 GND.n268 9.154
R327 GND.n394 GND.n393 9.154
R328 GND.n395 GND.n394 9.154
R329 GND.n267 GND.n266 9.154
R330 GND.n396 GND.n267 9.154
R331 GND.n399 GND.n398 9.154
R332 GND.n398 GND.n397 9.154
R333 GND.n264 GND.n263 9.154
R334 GND.n263 GND.n262 9.154
R335 GND.n404 GND.n403 9.154
R336 GND.n405 GND.n404 9.154
R337 GND.n261 GND.n260 9.154
R338 GND.n317 GND.n316 9.154
R339 GND.n318 GND.n317 9.154
R340 GND.n310 GND.n309 9.154
R341 GND.n319 GND.n310 9.154
R342 GND.n322 GND.n321 9.154
R343 GND.n321 GND.n320 9.154
R344 GND.n307 GND.n306 9.154
R345 GND.n306 GND.n305 9.154
R346 GND.n328 GND.n327 9.154
R347 GND.n329 GND.n328 9.154
R348 GND.n304 GND.n303 9.154
R349 GND.n330 GND.n304 9.154
R350 GND.n334 GND.n333 9.154
R351 GND.n333 GND.n332 9.154
R352 GND.n299 GND.n298 9.154
R353 GND.n331 GND.n298 9.154
R354 GND.n339 GND.n338 9.154
R355 GND.n340 GND.n339 9.154
R356 GND.n297 GND.n296 9.154
R357 GND.n341 GND.n297 9.154
R358 GND.n344 GND.n343 9.154
R359 GND.n343 GND.n342 9.154
R360 GND.n294 GND.n293 9.154
R361 GND.n293 GND.n292 9.154
R362 GND.n350 GND.n349 9.154
R363 GND.n351 GND.n350 9.154
R364 GND.n291 GND.n290 9.154
R365 GND.n352 GND.n291 9.154
R366 GND.n355 GND.n354 9.154
R367 GND.n354 GND.n353 9.154
R368 GND.n288 GND.n287 9.154
R369 GND.n287 GND.n286 9.154
R370 GND.n360 GND.n359 9.154
R371 GND.n361 GND.n360 9.154
R372 GND.n285 GND.n284 9.154
R373 GND.n258 GND.n257 9.154
R374 GND.n412 GND.n258 9.154
R375 GND.n415 GND.n414 9.154
R376 GND.n414 GND.n413 9.154
R377 GND.n255 GND.n254 9.154
R378 GND.n254 GND.n253 9.154
R379 GND.n420 GND.n419 9.154
R380 GND.n421 GND.n420 9.154
R381 GND.n252 GND.n251 9.154
R382 GND.n422 GND.n252 9.154
R383 GND.n425 GND.n424 9.154
R384 GND.n424 GND.n423 9.154
R385 GND.n249 GND.n248 9.154
R386 GND.n248 GND.n247 9.154
R387 GND.n431 GND.n430 9.154
R388 GND.n432 GND.n431 9.154
R389 GND.n246 GND.n245 9.154
R390 GND.n433 GND.n246 9.154
R391 GND.n436 GND.n435 9.154
R392 GND.n435 GND.n434 9.154
R393 GND.n243 GND.n242 9.154
R394 GND.n242 GND.n241 9.154
R395 GND.n444 GND.n443 9.154
R396 GND.n445 GND.n444 9.154
R397 GND.n240 GND.n239 9.154
R398 GND.n446 GND.n240 9.154
R399 GND.n450 GND.n449 9.154
R400 GND.n449 GND.n448 9.154
R401 GND.n238 GND.n237 9.154
R402 GND.n447 GND.n237 9.154
R403 GND.n456 GND.n455 9.154
R404 GND.n457 GND.n456 9.154
R405 GND.n236 GND.n235 9.154
R406 GND.n458 GND.n236 9.154
R407 GND.n462 GND.n461 9.154
R408 GND.n461 GND.n460 9.154
R409 GND.n233 GND.n232 9.154
R410 GND.n459 GND.n232 9.154
R411 GND.n467 GND.n466 9.154
R412 GND.n468 GND.n467 9.154
R413 GND.n231 GND.n230 9.154
R414 GND.n469 GND.n231 9.154
R415 GND.n473 GND.n472 9.154
R416 GND.n472 GND.n471 9.154
R417 GND.n227 GND.n226 9.154
R418 GND.n470 GND.n226 9.154
R419 GND.n478 GND.n477 9.154
R420 GND.n479 GND.n478 9.154
R421 GND.n228 GND.n225 9.154
R422 GND.n480 GND.n225 9.154
R423 GND.n482 GND.n481 9.154
R424 GND.n411 GND.n410 9.154
R425 GND.n5 GND.n4 9.154
R426 GND.n9 GND.n8 9.154
R427 GND.n8 GND.n7 9.154
R428 GND.n13 GND.n12 9.154
R429 GND.n12 GND.n11 9.154
R430 GND.n17 GND.n16 9.154
R431 GND.n16 GND.n15 9.154
R432 GND.n21 GND.n20 9.154
R433 GND.n20 GND.n19 9.154
R434 GND.n25 GND.n24 9.154
R435 GND.n24 GND.n23 9.154
R436 GND.n29 GND.n28 9.154
R437 GND.n28 GND.n27 9.154
R438 GND.n33 GND.n32 9.154
R439 GND.n32 GND.n31 9.154
R440 GND.n38 GND.n37 9.154
R441 GND.n37 GND.n36 9.154
R442 GND.n42 GND.n41 9.154
R443 GND.n41 GND.n40 9.154
R444 GND.n46 GND.n45 9.154
R445 GND.n45 GND.n44 9.154
R446 GND.n51 GND.n50 9.154
R447 GND.n50 GND.n49 9.154
R448 GND.n54 GND.n53 9.154
R449 GND.n53 GND.n52 9.154
R450 GND.n58 GND.n57 9.154
R451 GND.n57 GND.n56 9.154
R452 GND.n62 GND.n61 9.154
R453 GND.n61 GND.n60 9.154
R454 GND.n67 GND.n66 9.154
R455 GND.n66 GND.n65 9.154
R456 GND.n71 GND.n70 9.154
R457 GND.n70 GND.n69 9.154
R458 GND.n75 GND.n74 9.154
R459 GND.n74 GND.n73 9.154
R460 GND.n79 GND.n78 9.154
R461 GND.n78 GND.n77 9.154
R462 GND.n83 GND.n82 9.154
R463 GND.n82 GND.n81 9.154
R464 GND.n87 GND.n86 9.154
R465 GND.n86 GND.n85 9.154
R466 GND.n91 GND.n90 9.154
R467 GND.n90 GND.n89 9.154
R468 GND.n95 GND.n94 9.154
R469 GND.n103 GND.n102 9.154