* NGSPICE file created from EESPFAL_s3_flat.ext - technology: sky130A

.subckt EESPFAL_s3_flat GND x0 x0_bar x1 x1_bar x2 x2_bar x3 x3_bar s3_bar s3 Dis1
+ Dis3 Dis2 CLK1 CLK2 CLK3
X0 a_n2159_n2753# x3.t0 EESPFAL_INV4_0/A GND.t76 sky130_fd_pr__nfet_01v8 ad=9e+11p pd=4.2e+06u as=1.8e+12p ps=8.4e+06u w=1.5e+06u l=150000u
X1 EESPFAL_NAND_v3_1/OUT EESPFAL_NAND_v3_1/OUT_bar CLK2.t21 CLK2.t20 sky130_fd_pr__pfet_01v8 ad=9e+11p pd=4.2e+06u as=0p ps=0u w=1.5e+06u l=150000u
X2 CLK1.t13 EESPFAL_NAND_v3_1/B_bar EESPFAL_NAND_v3_1/B CLK1.t12 sky130_fd_pr__pfet_01v8 ad=0p pd=0u as=9e+11p ps=4.2e+06u w=1.5e+06u l=150000u
X3 EESPFAL_INV4_0/A EESPFAL_INV4_0/A_bar GND.t75 GND.t74 sky130_fd_pr__nfet_01v8 ad=0p pd=0u as=0p ps=0u w=1.5e+06u l=150000u
X4 GND.t14 EESPFAL_NAND_v3_0/A_bar.t6 EESPFAL_NAND_v3_0/A.t1 GND.t13 sky130_fd_pr__nfet_01v8 ad=0p pd=0u as=0p ps=0u w=1.5e+06u l=150000u
X5 GND.t40 EESPFAL_INV4_0/A EESPFAL_INV4_0/A_bar GND.t39 sky130_fd_pr__nfet_01v8 ad=0p pd=0u as=2.7e+12p ps=1.26e+07u w=1.5e+06u l=150000u
X6 EESPFAL_NAND_v3_1/B_bar Dis1.t0 GND.t58 GND.t20 sky130_fd_pr__nfet_01v8 ad=1.8e+12p pd=8.4e+06u as=0p ps=0u w=1.5e+06u l=150000u
X7 a_2081_n2754# EESPFAL_NAND_v3_1/OUT_bar a_1931_n2754# GND.t65 sky130_fd_pr__nfet_01v8 ad=9e+11p pd=4.2e+06u as=9e+11p ps=4.2e+06u w=1.5e+06u l=150000u
X8 GND.t83 Dis2.t0 EESPFAL_NAND_v3_0/OUT GND.t60 sky130_fd_pr__nfet_01v8 ad=0p pd=0u as=1.8e+12p ps=8.4e+06u w=1.5e+06u l=150000u
X9 a_n2160_67# x0_bar.t0 EESPFAL_NAND_v3_0/A_bar.t1 GND.t42 sky130_fd_pr__nfet_01v8 ad=9e+11p pd=4.2e+06u as=0p ps=0u w=1.5e+06u l=150000u
X10 GND.t61 Dis2.t1 EESPFAL_NAND_v3_1/OUT GND.t60 sky130_fd_pr__nfet_01v8 ad=0p pd=0u as=1.8e+12p ps=8.4e+06u w=1.5e+06u l=150000u
X11 CLK1.t1 EESPFAL_NAND_v3_1/A_bar.t6 EESPFAL_NAND_v3_1/A.t5 CLK1.t0 sky130_fd_pr__pfet_01v8 ad=0p pd=0u as=0p ps=0u w=1.5e+06u l=150000u
X12 CLK3.t1 EESPFAL_NAND_v3_0/OUT_bar.t6 a_2081_n2754# GND.t56 sky130_fd_pr__nfet_01v8 ad=0p pd=0u as=0p ps=0u w=1.5e+06u l=150000u
X13 EESPFAL_NAND_v3_1/A_bar.t5 x3.t1 a_n3420_n613# GND.t48 sky130_fd_pr__nfet_01v8 ad=0p pd=0u as=9e+11p ps=4.2e+06u w=1.5e+06u l=150000u
X14 a_n3420_n613# x2.t0 CLK1.t54 GND.t33 sky130_fd_pr__nfet_01v8 ad=0p pd=0u as=0p ps=0u w=1.5e+06u l=150000u
X15 a_n1860_n613# x2_bar.t0 CLK1.t36 GND.t63 sky130_fd_pr__nfet_01v8 ad=9e+11p pd=4.2e+06u as=0p ps=0u w=1.5e+06u l=150000u
X16 EESPFAL_NAND_v3_1/A.t3 EESPFAL_NAND_v3_1/A_bar.t7 GND.t47 GND.t46 sky130_fd_pr__nfet_01v8 ad=0p pd=0u as=0p ps=0u w=1.5e+06u l=150000u
X17 CLK2.t11 EESPFAL_INV4_0/A EESPFAL_3in_NOR_v2_0/C.t1 GND.t38 sky130_fd_pr__nfet_01v8 ad=0p pd=0u as=0p ps=0u w=1.5e+06u l=150000u
X18 GND.t29 Dis2.t2 EESPFAL_3in_NOR_v2_0/C.t4 GND.t28 sky130_fd_pr__nfet_01v8 ad=0p pd=0u as=0p ps=0u w=1.5e+06u l=150000u
X19 GND.t66 EESPFAL_NAND_v3_1/A.t6 EESPFAL_NAND_v3_1/A_bar.t3 GND.t13 sky130_fd_pr__nfet_01v8 ad=0p pd=0u as=0p ps=0u w=1.5e+06u l=150000u
X20 GND.t79 Dis3.t0 s3_bar.t0 GND.t78 sky130_fd_pr__nfet_01v8 ad=0p pd=0u as=0p ps=0u w=1.5e+06u l=150000u
X21 s3.t4 s3_bar.t5 CLK3.t3 CLK3.t2 sky130_fd_pr__pfet_01v8 ad=0p pd=0u as=0p ps=0u w=1.5e+06u l=150000u
X22 EESPFAL_INV4_0/A_bar EESPFAL_INV4_0/A CLK1.t18 CLK1.t17 sky130_fd_pr__pfet_01v8 ad=9e+11p pd=4.2e+06u as=0p ps=0u w=1.5e+06u l=150000u
X23 GND.t10 EESPFAL_NAND_v3_0/B EESPFAL_NAND_v3_0/B_bar GND.t9 sky130_fd_pr__nfet_01v8 ad=0p pd=0u as=1.8e+12p ps=8.4e+06u w=1.5e+06u l=150000u
X24 EESPFAL_3in_NOR_v2_0/C.t0 EESPFAL_3in_NOR_v2_0/C_bar.t5 GND.t1 GND.t0 sky130_fd_pr__nfet_01v8 ad=0p pd=0u as=0p ps=0u w=1.5e+06u l=150000u
X25 CLK2.t10 EESPFAL_NAND_v3_1/B_bar EESPFAL_NAND_v3_1/OUT_bar GND.t37 sky130_fd_pr__nfet_01v8 ad=0p pd=0u as=2.7e+12p ps=1.26e+07u w=1.5e+06u l=150000u
X26 EESPFAL_NAND_v3_0/OUT_bar.t2 Dis2.t3 GND.t27 GND.t26 sky130_fd_pr__nfet_01v8 ad=0p pd=0u as=0p ps=0u w=1.5e+06u l=150000u
X27 CLK1.t50 EESPFAL_NAND_v3_0/A.t6 EESPFAL_NAND_v3_0/A_bar.t5 CLK1.t49 sky130_fd_pr__pfet_01v8 ad=0p pd=0u as=0p ps=0u w=1.5e+06u l=150000u
X28 EESPFAL_NAND_v3_1/B_bar x1_bar.t0 CLK1.t34 GND.t57 sky130_fd_pr__nfet_01v8 ad=0p pd=0u as=0p ps=0u w=1.5e+06u l=150000u
X29 EESPFAL_NAND_v3_1/OUT_bar EESPFAL_NAND_v3_1/OUT CLK2.t5 CLK2.t4 sky130_fd_pr__pfet_01v8 ad=9e+11p pd=4.2e+06u as=0p ps=0u w=1.5e+06u l=150000u
X30 CLK1.t51 x1.t0 EESPFAL_NAND_v3_1/B GND.t41 sky130_fd_pr__nfet_01v8 ad=0p pd=0u as=1.8e+12p ps=8.4e+06u w=1.5e+06u l=150000u
X31 EESPFAL_NAND_v3_0/B EESPFAL_NAND_v3_0/B_bar CLK1.t29 CLK1.t28 sky130_fd_pr__pfet_01v8 ad=9e+11p pd=4.2e+06u as=0p ps=0u w=1.5e+06u l=150000u
X32 a_n2009_n2753# x0.t0 a_n2159_n2753# GND.t53 sky130_fd_pr__nfet_01v8 ad=9e+11p pd=4.2e+06u as=0p ps=0u w=1.5e+06u l=150000u
X33 a_n3420_67# x1.t1 CLK1.t9 GND.t33 sky130_fd_pr__nfet_01v8 ad=9e+11p pd=4.2e+06u as=0p ps=0u w=1.5e+06u l=150000u
X34 CLK2.t7 EESPFAL_3in_NOR_v2_0/C.t5 EESPFAL_3in_NOR_v2_0/C_bar.t2 CLK2.t6 sky130_fd_pr__pfet_01v8 ad=0p pd=0u as=0p ps=0u w=1.5e+06u l=150000u
X35 CLK1.t7 EESPFAL_NAND_v3_0/A_bar.t7 EESPFAL_NAND_v3_0/A.t3 CLK1.t6 sky130_fd_pr__pfet_01v8 ad=0p pd=0u as=0p ps=0u w=1.5e+06u l=150000u
X36 GND.t72 Dis1.t1 EESPFAL_INV4_0/A GND.t71 sky130_fd_pr__nfet_01v8 ad=0p pd=0u as=0p ps=0u w=1.5e+06u l=150000u
X37 EESPFAL_3in_NOR_v2_0/C_bar.t1 EESPFAL_3in_NOR_v2_0/C.t6 CLK2.t17 CLK2.t16 sky130_fd_pr__pfet_01v8 ad=0p pd=0u as=0p ps=0u w=1.5e+06u l=150000u
X38 EESPFAL_INV4_0/A_bar x3_bar.t0 CLK1.t33 GND.t55 sky130_fd_pr__nfet_01v8 ad=0p pd=0u as=0p ps=0u w=1.5e+06u l=150000u
X39 CLK1.t52 x2_bar.t1 a_n2009_n2753# GND.t80 sky130_fd_pr__nfet_01v8 ad=0p pd=0u as=0p ps=0u w=1.5e+06u l=150000u
X40 EESPFAL_NAND_v3_0/B_bar EESPFAL_NAND_v3_0/B CLK1.t5 CLK1.t4 sky130_fd_pr__pfet_01v8 ad=9e+11p pd=4.2e+06u as=0p ps=0u w=1.5e+06u l=150000u
X41 EESPFAL_NAND_v3_0/OUT_bar.t5 EESPFAL_NAND_v3_0/OUT CLK2.t31 CLK2.t30 sky130_fd_pr__pfet_01v8 ad=0p pd=0u as=0p ps=0u w=1.5e+06u l=150000u
X42 CLK1.t8 x2_bar.t2 a_n3720_n613# GND.t32 sky130_fd_pr__nfet_01v8 ad=0p pd=0u as=9e+11p ps=4.2e+06u w=1.5e+06u l=150000u
X43 a_n3720_n613# x3_bar.t1 EESPFAL_NAND_v3_1/A_bar.t1 GND.t30 sky130_fd_pr__nfet_01v8 ad=0p pd=0u as=0p ps=0u w=1.5e+06u l=150000u
X44 EESPFAL_NAND_v3_1/B_bar EESPFAL_NAND_v3_1/B CLK1.t25 CLK1.t24 sky130_fd_pr__pfet_01v8 ad=9e+11p pd=4.2e+06u as=0p ps=0u w=1.5e+06u l=150000u
X45 EESPFAL_NAND_v3_1/A_bar.t2 Dis1.t2 GND.t25 GND.t24 sky130_fd_pr__nfet_01v8 ad=0p pd=0u as=0p ps=0u w=1.5e+06u l=150000u
X46 GND.t50 s3_bar.t6 s3.t2 GND.t49 sky130_fd_pr__nfet_01v8 ad=0p pd=0u as=0p ps=0u w=1.5e+06u l=150000u
X47 EESPFAL_INV4_0/A EESPFAL_INV4_0/A_bar CLK1.t43 CLK1.t42 sky130_fd_pr__pfet_01v8 ad=9e+11p pd=4.2e+06u as=0p ps=0u w=1.5e+06u l=150000u
X48 EESPFAL_NAND_v3_0/OUT EESPFAL_NAND_v3_0/OUT_bar.t7 GND.t7 GND.t6 sky130_fd_pr__nfet_01v8 ad=0p pd=0u as=0p ps=0u w=1.5e+06u l=150000u
X49 CLK1.t55 x1.t2 a_n2160_67# GND.t62 sky130_fd_pr__nfet_01v8 ad=0p pd=0u as=0p ps=0u w=1.5e+06u l=150000u
X50 EESPFAL_NAND_v3_0/A_bar.t4 EESPFAL_NAND_v3_0/A.t7 GND.t77 GND.t46 sky130_fd_pr__nfet_01v8 ad=0p pd=0u as=0p ps=0u w=1.5e+06u l=150000u
X51 a_1910_n613# EESPFAL_NAND_v3_1/B EESPFAL_NAND_v3_1/OUT GND.t8 sky130_fd_pr__nfet_01v8 ad=9e+11p pd=4.2e+06u as=0p ps=0u w=1.5e+06u l=150000u
X52 EESPFAL_NAND_v3_1/OUT_bar EESPFAL_NAND_v3_1/A_bar.t8 CLK2.t12 GND.t34 sky130_fd_pr__nfet_01v8 ad=0p pd=0u as=0p ps=0u w=1.5e+06u l=150000u
X53 s3_bar.t3 s3.t7 GND.t68 GND.t67 sky130_fd_pr__nfet_01v8 ad=0p pd=0u as=0p ps=0u w=1.5e+06u l=150000u
X54 CLK1.t16 EESPFAL_INV4_0/A EESPFAL_INV4_0/A_bar CLK1.t15 sky130_fd_pr__pfet_01v8 ad=0p pd=0u as=0p ps=0u w=1.5e+06u l=150000u
X55 EESPFAL_NAND_v3_0/OUT EESPFAL_NAND_v3_0/OUT_bar.t8 CLK2.t1 CLK2.t0 sky130_fd_pr__pfet_01v8 ad=9e+11p pd=4.2e+06u as=0p ps=0u w=1.5e+06u l=150000u
X56 a_1931_n2754# EESPFAL_3in_NOR_v2_0/C_bar.t6 s3_bar.t2 GND.t54 sky130_fd_pr__nfet_01v8 ad=0p pd=0u as=0p ps=0u w=1.5e+06u l=150000u
X57 CLK1.t35 x2.t1 a_n2160_n613# GND.t62 sky130_fd_pr__nfet_01v8 ad=0p pd=0u as=9e+11p ps=4.2e+06u w=1.5e+06u l=150000u
X58 EESPFAL_NAND_v3_1/A_bar.t0 EESPFAL_NAND_v3_1/A.t7 CLK1.t31 CLK1.t30 sky130_fd_pr__pfet_01v8 ad=0p pd=0u as=0p ps=0u w=1.5e+06u l=150000u
X59 GND.t16 Dis1.t3 EESPFAL_NAND_v3_1/B GND.t15 sky130_fd_pr__nfet_01v8 ad=0p pd=0u as=0p ps=0u w=1.5e+06u l=150000u
X60 a_n3720_67# x0_bar.t1 EESPFAL_NAND_v3_0/A.t0 GND.t30 sky130_fd_pr__nfet_01v8 ad=9e+11p pd=4.2e+06u as=0p ps=0u w=1.5e+06u l=150000u
X61 EESPFAL_NAND_v3_1/OUT_bar Dis2.t4 GND.t59 GND.t26 sky130_fd_pr__nfet_01v8 ad=0p pd=0u as=0p ps=0u w=1.5e+06u l=150000u
X62 EESPFAL_NAND_v3_0/B EESPFAL_NAND_v3_0/B_bar GND.t44 GND.t35 sky130_fd_pr__nfet_01v8 ad=1.8e+12p pd=8.4e+06u as=0p ps=0u w=1.5e+06u l=150000u
X63 CLK2.t23 EESPFAL_3in_NOR_v2_0/C_bar.t7 EESPFAL_3in_NOR_v2_0/C.t2 CLK2.t22 sky130_fd_pr__pfet_01v8 ad=0p pd=0u as=0p ps=0u w=1.5e+06u l=150000u
X64 EESPFAL_NAND_v3_0/OUT_bar.t0 EESPFAL_NAND_v3_0/A_bar.t8 CLK2.t9 GND.t34 sky130_fd_pr__nfet_01v8 ad=0p pd=0u as=0p ps=0u w=1.5e+06u l=150000u
X65 s3.t5 EESPFAL_3in_NOR_v2_0/C.t7 CLK3.t10 GND.t81 sky130_fd_pr__nfet_01v8 ad=0p pd=0u as=0p ps=0u w=1.5e+06u l=150000u
X66 CLK3.t5 s3.t8 s3_bar.t1 CLK3.t4 sky130_fd_pr__pfet_01v8 ad=0p pd=0u as=0p ps=0u w=1.5e+06u l=150000u
X67 a_n1860_67# x1_bar.t1 CLK1.t39 GND.t63 sky130_fd_pr__nfet_01v8 ad=9e+11p pd=4.2e+06u as=0p ps=0u w=1.5e+06u l=150000u
X68 EESPFAL_3in_NOR_v2_0/C.t3 EESPFAL_3in_NOR_v2_0/C_bar.t8 CLK2.t27 CLK2.t26 sky130_fd_pr__pfet_01v8 ad=0p pd=0u as=0p ps=0u w=1.5e+06u l=150000u
X69 EESPFAL_INV4_0/A_bar x2.t2 CLK1.t53 GND.t82 sky130_fd_pr__nfet_01v8 ad=0p pd=0u as=0p ps=0u w=1.5e+06u l=150000u
X70 EESPFAL_NAND_v3_0/A_bar.t3 EESPFAL_NAND_v3_0/A.t8 CLK1.t48 CLK1.t47 sky130_fd_pr__pfet_01v8 ad=0p pd=0u as=0p ps=0u w=1.5e+06u l=150000u
X71 CLK1.t32 x0_bar.t2 EESPFAL_INV4_0/A_bar GND.t45 sky130_fd_pr__nfet_01v8 ad=0p pd=0u as=0p ps=0u w=1.5e+06u l=150000u
X72 EESPFAL_NAND_v3_0/A.t5 Dis1.t4 GND.t70 GND.t24 sky130_fd_pr__nfet_01v8 ad=0p pd=0u as=0p ps=0u w=1.5e+06u l=150000u
X73 CLK2.t19 EESPFAL_NAND_v3_1/OUT_bar EESPFAL_NAND_v3_1/OUT CLK2.t18 sky130_fd_pr__pfet_01v8 ad=0p pd=0u as=0p ps=0u w=1.5e+06u l=150000u
X74 EESPFAL_NAND_v3_1/B EESPFAL_NAND_v3_1/B_bar CLK1.t11 CLK1.t10 sky130_fd_pr__pfet_01v8 ad=0p pd=0u as=0p ps=0u w=1.5e+06u l=150000u
X75 CLK2.t25 EESPFAL_NAND_v3_0/A.t9 a_1910_67# GND.t31 sky130_fd_pr__nfet_01v8 ad=0p pd=0u as=9e+11p ps=4.2e+06u w=1.5e+06u l=150000u
X76 EESPFAL_NAND_v3_0/A.t4 x0.t1 a_n3420_67# GND.t48 sky130_fd_pr__nfet_01v8 ad=0p pd=0u as=0p ps=0u w=1.5e+06u l=150000u
X77 CLK1.t23 EESPFAL_NAND_v3_1/B EESPFAL_NAND_v3_1/B_bar CLK1.t22 sky130_fd_pr__pfet_01v8 ad=0p pd=0u as=0p ps=0u w=1.5e+06u l=150000u
X78 EESPFAL_NAND_v3_0/A.t2 EESPFAL_NAND_v3_0/A_bar.t9 CLK1.t46 CLK1.t45 sky130_fd_pr__pfet_01v8 ad=0p pd=0u as=0p ps=0u w=1.5e+06u l=150000u
X79 s3.t1 Dis3.t1 GND.t52 GND.t51 sky130_fd_pr__nfet_01v8 ad=0p pd=0u as=0p ps=0u w=1.5e+06u l=150000u
X80 EESPFAL_INV4_0/A_bar Dis1.t5 GND.t23 GND.t22 sky130_fd_pr__nfet_01v8 ad=0p pd=0u as=0p ps=0u w=1.5e+06u l=150000u
X81 CLK1.t41 EESPFAL_INV4_0/A_bar EESPFAL_INV4_0/A CLK1.t40 sky130_fd_pr__pfet_01v8 ad=0p pd=0u as=0p ps=0u w=1.5e+06u l=150000u
X82 a_n2160_n613# x3_bar.t2 EESPFAL_NAND_v3_1/A.t0 GND.t42 sky130_fd_pr__nfet_01v8 ad=0p pd=0u as=0p ps=0u w=1.5e+06u l=150000u
X83 EESPFAL_NAND_v3_1/A.t4 EESPFAL_NAND_v3_1/A_bar.t9 CLK1.t21 CLK1.t20 sky130_fd_pr__pfet_01v8 ad=0p pd=0u as=0p ps=0u w=1.5e+06u l=150000u
X84 EESPFAL_NAND_v3_1/B EESPFAL_NAND_v3_1/B_bar GND.t36 GND.t35 sky130_fd_pr__nfet_01v8 ad=0p pd=0u as=0p ps=0u w=1.5e+06u l=150000u
X85 GND.t43 EESPFAL_NAND_v3_1/B EESPFAL_NAND_v3_1/B_bar GND.t9 sky130_fd_pr__nfet_01v8 ad=0p pd=0u as=0p ps=0u w=1.5e+06u l=150000u
X86 EESPFAL_NAND_v3_0/B_bar Dis1.t6 GND.t21 GND.t20 sky130_fd_pr__nfet_01v8 ad=0p pd=0u as=0p ps=0u w=1.5e+06u l=150000u
X87 CLK2.t8 EESPFAL_NAND_v3_1/A.t8 a_1910_n613# GND.t31 sky130_fd_pr__nfet_01v8 ad=0p pd=0u as=0p ps=0u w=1.5e+06u l=150000u
X88 GND.t69 Dis1.t7 EESPFAL_NAND_v3_0/A_bar.t2 GND.t18 sky130_fd_pr__nfet_01v8 ad=0p pd=0u as=0p ps=0u w=1.5e+06u l=150000u
X89 CLK2.t29 EESPFAL_NAND_v3_0/OUT EESPFAL_NAND_v3_0/OUT_bar.t4 CLK2.t28 sky130_fd_pr__pfet_01v8 ad=0p pd=0u as=0p ps=0u w=1.5e+06u l=150000u
X90 GND.t5 EESPFAL_NAND_v3_1/OUT EESPFAL_NAND_v3_1/OUT_bar GND.t4 sky130_fd_pr__nfet_01v8 ad=0p pd=0u as=0p ps=0u w=1.5e+06u l=150000u
X91 CLK1.t38 EESPFAL_NAND_v3_1/A.t9 EESPFAL_NAND_v3_1/A_bar.t4 CLK1.t37 sky130_fd_pr__pfet_01v8 ad=0p pd=0u as=0p ps=0u w=1.5e+06u l=150000u
X92 EESPFAL_NAND_v3_1/OUT EESPFAL_NAND_v3_1/OUT_bar GND.t64 GND.t6 sky130_fd_pr__nfet_01v8 ad=0p pd=0u as=0p ps=0u w=1.5e+06u l=150000u
X93 a_1910_67# EESPFAL_NAND_v3_0/B EESPFAL_NAND_v3_0/OUT GND.t8 sky130_fd_pr__nfet_01v8 ad=0p pd=0u as=0p ps=0u w=1.5e+06u l=150000u
X94 GND.t85 EESPFAL_NAND_v3_0/OUT EESPFAL_NAND_v3_0/OUT_bar.t3 GND.t4 sky130_fd_pr__nfet_01v8 ad=0p pd=0u as=0p ps=0u w=1.5e+06u l=150000u
X95 CLK1.t19 x3_bar.t3 EESPFAL_NAND_v3_0/B GND.t41 sky130_fd_pr__nfet_01v8 ad=0p pd=0u as=0p ps=0u w=1.5e+06u l=150000u
X96 CLK1.t27 EESPFAL_NAND_v3_0/B_bar EESPFAL_NAND_v3_0/B CLK1.t26 sky130_fd_pr__pfet_01v8 ad=0p pd=0u as=0p ps=0u w=1.5e+06u l=150000u
X97 s3.t6 EESPFAL_NAND_v3_0/OUT CLK3.t11 GND.t84 sky130_fd_pr__nfet_01v8 ad=0p pd=0u as=0p ps=0u w=1.5e+06u l=150000u
X98 CLK3.t9 s3_bar.t7 s3.t3 CLK3.t8 sky130_fd_pr__pfet_01v8 ad=0p pd=0u as=0p ps=0u w=1.5e+06u l=150000u
X99 GND.t87 EESPFAL_3in_NOR_v2_0/C.t8 EESPFAL_3in_NOR_v2_0/C_bar.t0 GND.t86 sky130_fd_pr__nfet_01v8 ad=0p pd=0u as=0p ps=0u w=1.5e+06u l=150000u
X100 GND.t19 Dis1.t8 EESPFAL_NAND_v3_1/A.t1 GND.t18 sky130_fd_pr__nfet_01v8 ad=0p pd=0u as=0p ps=0u w=1.5e+06u l=150000u
X101 EESPFAL_3in_NOR_v2_0/C_bar.t3 EESPFAL_INV4_0/A_bar CLK2.t24 GND.t73 sky130_fd_pr__nfet_01v8 ad=0p pd=0u as=0p ps=0u w=1.5e+06u l=150000u
X102 EESPFAL_NAND_v3_1/A.t2 x3.t2 a_n1860_n613# GND.t2 sky130_fd_pr__nfet_01v8 ad=0p pd=0u as=0p ps=0u w=1.5e+06u l=150000u
X103 CLK3.t0 EESPFAL_NAND_v3_1/OUT s3.t0 GND.t3 sky130_fd_pr__nfet_01v8 ad=0p pd=0u as=0p ps=0u w=1.5e+06u l=150000u
X104 s3_bar.t4 s3.t9 CLK3.t7 CLK3.t6 sky130_fd_pr__pfet_01v8 ad=0p pd=0u as=0p ps=0u w=1.5e+06u l=150000u
X105 EESPFAL_3in_NOR_v2_0/C_bar.t4 Dis2.t5 GND.t12 GND.t11 sky130_fd_pr__nfet_01v8 ad=0p pd=0u as=0p ps=0u w=1.5e+06u l=150000u
X106 CLK2.t15 EESPFAL_NAND_v3_0/OUT_bar.t9 EESPFAL_NAND_v3_0/OUT CLK2.t14 sky130_fd_pr__pfet_01v8 ad=0p pd=0u as=0p ps=0u w=1.5e+06u l=150000u
X107 GND.t17 Dis1.t9 EESPFAL_NAND_v3_0/B GND.t15 sky130_fd_pr__nfet_01v8 ad=0p pd=0u as=0p ps=0u w=1.5e+06u l=150000u
X108 CLK1.t14 x1_bar.t2 a_n3720_67# GND.t32 sky130_fd_pr__nfet_01v8 ad=0p pd=0u as=0p ps=0u w=1.5e+06u l=150000u
X109 CLK2.t13 EESPFAL_NAND_v3_0/B_bar EESPFAL_NAND_v3_0/OUT_bar.t1 GND.t37 sky130_fd_pr__nfet_01v8 ad=0p pd=0u as=0p ps=0u w=1.5e+06u l=150000u
X110 CLK2.t3 EESPFAL_NAND_v3_1/OUT EESPFAL_NAND_v3_1/OUT_bar CLK2.t2 sky130_fd_pr__pfet_01v8 ad=0p pd=0u as=0p ps=0u w=1.5e+06u l=150000u
X111 EESPFAL_NAND_v3_0/B_bar x3.t3 CLK1.t44 GND.t57 sky130_fd_pr__nfet_01v8 ad=0p pd=0u as=0p ps=0u w=1.5e+06u l=150000u
X112 EESPFAL_NAND_v3_0/A_bar.t0 x0.t2 a_n1860_67# GND.t2 sky130_fd_pr__nfet_01v8 ad=0p pd=0u as=0p ps=0u w=1.5e+06u l=150000u
X113 CLK1.t3 EESPFAL_NAND_v3_0/B EESPFAL_NAND_v3_0/B_bar CLK1.t2 sky130_fd_pr__pfet_01v8 ad=0p pd=0u as=0p ps=0u w=1.5e+06u l=150000u
R0 EESPFAL_3in_NAND_v2_0/C x3.t0 904.039
R1 x3.n0 x3.t2 800.452
R2 x3.n0 x3.t1 787.997
R3 x3 x3.t3 392.5
R4 x3.n1 x3 179.728
R5 EESPFAL_XOR_v3_1/B x3.n0 169.6
R6 x3.n2 EESPFAL_3in_NAND_v2_0/C 146.249
R7 EESPFAL_XOR_v3_1/B x3.n2 96.17
R8 x3.n2 x3.n1 1.878
R9 x3.n1 x3 1.007
R10 GND.n405 GND.n404 341.085
R11 GND.n413 GND.n245 341.085
R12 GND.n415 GND.n414 341.085
R13 GND.n424 GND.n239 341.085
R14 GND.n425 GND.n424 341.085
R15 GND.n426 GND.n425 341.085
R16 GND.n437 GND.n233 341.085
R17 GND.n440 GND.n439 341.085
R18 GND.n450 GND.n449 341.085
R19 GND.n452 GND.n450 341.085
R20 GND.n452 GND.n451 341.085
R21 GND.n461 GND.n460 341.085
R22 GND.n463 GND.n462 341.085
R23 GND.n472 GND.n471 341.085
R24 GND.n311 GND.n310 341.085
R25 GND.n312 GND.n297 341.085
R26 GND.n321 GND.n297 341.085
R27 GND.n322 GND.n321 341.085
R28 GND.n324 GND.n323 341.085
R29 GND.n334 GND.n333 341.085
R30 GND.n343 GND.n284 341.085
R31 GND.n344 GND.n343 341.085
R32 GND.n345 GND.n344 341.085
R33 GND.n353 GND.n278 341.085
R34 GND.n365 GND.n364 341.085
R35 GND.n367 GND.n365 341.085
R36 GND.n367 GND.n366 341.085
R37 GND.n377 GND.n376 341.085
R38 GND.n387 GND.n260 341.085
R39 GND.n389 GND.n388 341.085
R40 GND.n389 GND.n254 341.085
R41 GND.n397 GND.n254 341.085
R42 GND.t42 GND.n239 319.767
R43 GND.n438 GND.t46 319.767
R44 GND.t13 GND.n438 319.767
R45 GND.n451 GND.t48 319.767
R46 GND.n312 GND.t8 319.767
R47 GND.n332 GND.t6 319.767
R48 GND.t4 GND.n332 319.767
R49 GND.n345 GND.t34 319.767
R50 GND.n364 GND.t41 319.767
R51 GND.n378 GND.t35 319.767
R52 GND.n378 GND.t9 319.767
R53 GND.t57 GND.n397 319.767
R54 GND.n414 GND.t62 277.131
R55 GND.t18 GND.n233 277.131
R56 GND.n439 GND.t24 277.131
R57 GND.t33 GND.n461 277.131
R58 GND.n310 GND.t31 277.131
R59 GND.n324 GND.t60 277.131
R60 GND.n334 GND.t26 277.131
R61 GND.t37 GND.n353 277.131
R62 GND.n376 GND.t15 277.131
R63 GND.t20 GND.n387 277.131
R64 GND.t63 GND.n245 234.496
R65 GND.n462 GND.t32 234.496
R66 GND.n95 GND.t84 192.984
R67 GND.n167 GND.t80 192.984
R68 GND.n7 GND.t56 192.984
R69 GND.n476 GND.t55 192.984
R70 GND.n404 GND.t2 191.86
R71 GND.t30 GND.n472 191.86
R72 GND.t2 GND.n403 158.378
R73 GND.n473 GND.t30 158.378
R74 GND.n403 GND.n250 157.6
R75 GND.n406 GND.n250 157.6
R76 GND.n406 GND.n246 157.6
R77 GND.n412 GND.n246 157.6
R78 GND.n412 GND.n244 157.6
R79 GND.n416 GND.n244 157.6
R80 GND.n416 GND.n240 157.6
R81 GND.n423 GND.n240 157.6
R82 GND.n423 GND.n238 157.6
R83 GND.n427 GND.n238 157.6
R84 GND.n427 GND.n234 157.6
R85 GND.n436 GND.n234 157.6
R86 GND.n436 GND.n232 157.6
R87 GND.n441 GND.n232 157.6
R88 GND.n441 GND.n229 157.6
R89 GND.n448 GND.n229 157.6
R90 GND.n448 GND.n228 157.6
R91 GND.n453 GND.n228 157.6
R92 GND.n453 GND.n224 157.6
R93 GND.n459 GND.n224 157.6
R94 GND.n459 GND.n223 157.6
R95 GND.n464 GND.n223 157.6
R96 GND.n464 GND.n218 157.6
R97 GND.n470 GND.n218 157.6
R98 GND.n470 GND.n217 157.6
R99 GND.n473 GND.n217 157.6
R100 GND.n309 GND.n303 157.6
R101 GND.n309 GND.n302 157.6
R102 GND.n313 GND.n302 157.6
R103 GND.n313 GND.n298 157.6
R104 GND.n320 GND.n298 157.6
R105 GND.n320 GND.n296 157.6
R106 GND.n325 GND.n296 157.6
R107 GND.n325 GND.n290 157.6
R108 GND.n331 GND.n290 157.6
R109 GND.n331 GND.n289 157.6
R110 GND.n335 GND.n289 157.6
R111 GND.n335 GND.n285 157.6
R112 GND.n342 GND.n285 157.6
R113 GND.n342 GND.n283 157.6
R114 GND.n346 GND.n283 157.6
R115 GND.n346 GND.n279 157.6
R116 GND.n352 GND.n279 157.6
R117 GND.n352 GND.n277 157.6
R118 GND.n363 GND.n273 157.6
R119 GND.n363 GND.n272 157.6
R120 GND.n368 GND.n272 157.6
R121 GND.n368 GND.n268 157.6
R122 GND.n375 GND.n268 157.6
R123 GND.n375 GND.n267 157.6
R124 GND.n379 GND.n267 157.6
R125 GND.n379 GND.n261 157.6
R126 GND.n386 GND.n261 157.6
R127 GND.n386 GND.n259 157.6
R128 GND.n390 GND.n259 157.6
R129 GND.n390 GND.n255 157.6
R130 GND.n396 GND.n255 157.6
R131 GND.n396 GND.n253 157.6
R132 GND.n306 GND.n305 118.661
R133 GND.n355 GND.n354 115.922
R134 GND.n358 GND.n357 115.922
R135 GND.n399 GND.n398 115.922
R136 GND.n120 GND.t28 111.486
R137 GND.n142 GND.t11 111.486
R138 GND.n15 GND.t65 111.486
R139 GND.n40 GND.t78 111.486
R140 GND.n62 GND.t51 111.486
R141 GND.n87 GND.t3 111.486
R142 GND.n175 GND.t53 111.486
R143 GND.n200 GND.t71 111.486
R144 GND.n509 GND.t22 111.486
R145 GND.n484 GND.t45 111.486
R146 GND.n405 GND.t63 106.589
R147 GND.n471 GND.t32 106.589
R148 GND.n305 GND.t31 70.155
R149 GND.n354 GND.t37 70.155
R150 GND.t62 GND.n413 63.953
R151 GND.n426 GND.t18 63.953
R152 GND.n449 GND.t24 63.953
R153 GND.n463 GND.t33 63.953
R154 GND.t60 GND.n322 63.953
R155 GND.t26 GND.n284 63.953
R156 GND.n366 GND.t15 63.953
R157 GND.n388 GND.t20 63.953
R158 GND.n475 GND 48.86
R159 GND.n159 GND.t73 44.336
R160 GND.n103 GND.t38 44.336
R161 GND.n128 GND.t0 37.162
R162 GND.n134 GND.t86 37.162
R163 GND.n23 GND.t54 37.162
R164 GND.n48 GND.t67 37.162
R165 GND.n54 GND.t49 37.162
R166 GND.n79 GND.t81 37.162
R167 GND.n183 GND.t76 37.162
R168 GND.n208 GND.t74 37.162
R169 GND.n517 GND.t39 37.162
R170 GND.n492 GND.t82 37.162
R171 GND GND.n474 31.565
R172 GND.n317 GND.t83 29.103
R173 GND.n339 GND.t27 29.103
R174 GND.n371 GND.t17 29.103
R175 GND.n257 GND.t21 29.103
R176 GND.n236 GND.t69 29.103
R177 GND.n445 GND.t70 29.103
R178 GND.n39 GND.t79 29.103
R179 GND.n66 GND.t52 29.103
R180 GND.n119 GND.t29 29.103
R181 GND.n146 GND.t12 29.103
R182 GND.n199 GND.t72 29.103
R183 GND.n508 GND.t23 29.103
R184 GND.n317 GND.t61 29.102
R185 GND.n339 GND.t59 29.102
R186 GND.n371 GND.t16 29.102
R187 GND.n257 GND.t58 29.102
R188 GND.n236 GND.t19 29.102
R189 GND.n445 GND.t25 29.102
R190 GND.n357 GND.t41 27.519
R191 GND.n398 GND.t57 27.519
R192 GND.n432 GND.t47 24
R193 GND.n432 GND.t66 24
R194 GND.n431 GND.t77 24
R195 GND.n431 GND.t14 24
R196 GND.n293 GND.t64 24
R197 GND.n293 GND.t5 24
R198 GND.n292 GND.t7 24
R199 GND.n292 GND.t85 24
R200 GND.n264 GND.t36 24
R201 GND.n264 GND.t43 24
R202 GND.n263 GND.t44 24
R203 GND.n263 GND.t10 24
R204 GND.n0 GND.t75 24
R205 GND.n0 GND.t40 24
R206 GND.n3 GND.t1 24
R207 GND.n3 GND.t87 24
R208 GND.n6 GND.t68 24
R209 GND.n6 GND.t50 24
R210 GND.n415 GND.t42 21.317
R211 GND.t46 GND.n437 21.317
R212 GND.n440 GND.t13 21.317
R213 GND.n460 GND.t48 21.317
R214 GND.t8 GND.n311 21.317
R215 GND.n323 GND.t6 21.317
R216 GND.n333 GND.t4 21.317
R217 GND.t34 GND.n278 21.317
R218 GND.t35 GND.n377 21.317
R219 GND.t9 GND.n260 21.317
R220 GND.n308 GND.n304 12.8
R221 GND.n308 GND.n301 12.8
R222 GND.n314 GND.n301 12.8
R223 GND.n314 GND.n299 12.8
R224 GND.n319 GND.n299 12.8
R225 GND.n319 GND.n295 12.8
R226 GND.n326 GND.n295 12.8
R227 GND.n326 GND.n291 12.8
R228 GND.n330 GND.n291 12.8
R229 GND.n330 GND.n288 12.8
R230 GND.n336 GND.n288 12.8
R231 GND.n336 GND.n286 12.8
R232 GND.n341 GND.n286 12.8
R233 GND.n341 GND.n282 12.8
R234 GND.n347 GND.n282 12.8
R235 GND.n347 GND.n280 12.8
R236 GND.n351 GND.n280 12.8
R237 GND.n351 GND.n276 12.8
R238 GND.n355 GND.n276 12.8
R239 GND.n358 GND.n274 12.8
R240 GND.n362 GND.n274 12.8
R241 GND.n362 GND.n271 12.8
R242 GND.n369 GND.n271 12.8
R243 GND.n369 GND.n269 12.8
R244 GND.n374 GND.n269 12.8
R245 GND.n374 GND.n266 12.8
R246 GND.n380 GND.n266 12.8
R247 GND.n380 GND.n262 12.8
R248 GND.n385 GND.n262 12.8
R249 GND.n385 GND.n258 12.8
R250 GND.n391 GND.n258 12.8
R251 GND.n391 GND.n256 12.8
R252 GND.n395 GND.n256 12.8
R253 GND.n395 GND.n252 12.8
R254 GND.n399 GND.n252 12.8
R255 GND.n402 GND.n249 12.8
R256 GND.n407 GND.n249 12.8
R257 GND.n407 GND.n247 12.8
R258 GND.n411 GND.n247 12.8
R259 GND.n411 GND.n243 12.8
R260 GND.n417 GND.n243 12.8
R261 GND.n417 GND.n241 12.8
R262 GND.n422 GND.n241 12.8
R263 GND.n422 GND.n237 12.8
R264 GND.n428 GND.n237 12.8
R265 GND.n428 GND.n235 12.8
R266 GND.n435 GND.n235 12.8
R267 GND.n435 GND.n231 12.8
R268 GND.n442 GND.n231 12.8
R269 GND.n442 GND.n230 12.8
R270 GND.n447 GND.n230 12.8
R271 GND.n447 GND.n227 12.8
R272 GND.n454 GND.n227 12.8
R273 GND.n454 GND.n225 12.8
R274 GND.n458 GND.n225 12.8
R275 GND.n458 GND.n222 12.8
R276 GND.n465 GND.n222 12.8
R277 GND.n465 GND.n219 12.8
R278 GND.n469 GND.n219 12.8
R279 GND.n469 GND.n220 12.8
R280 GND.n136 GND.n133 12.8
R281 GND.n56 GND.n53 12.8
R282 GND.n304 GND.n303 9.154
R283 GND.n274 GND.n273 9.154
R284 GND.n363 GND.n362 9.154
R285 GND.n364 GND.n363 9.154
R286 GND.n272 GND.n271 9.154
R287 GND.n365 GND.n272 9.154
R288 GND.n369 GND.n368 9.154
R289 GND.n368 GND.n367 9.154
R290 GND.n269 GND.n268 9.154
R291 GND.n366 GND.n268 9.154
R292 GND.n375 GND.n374 9.154
R293 GND.n376 GND.n375 9.154
R294 GND.n267 GND.n266 9.154
R295 GND.n377 GND.n267 9.154
R296 GND.n380 GND.n379 9.154
R297 GND.n379 GND.n378 9.154
R298 GND.n262 GND.n261 9.154
R299 GND.n261 GND.n260 9.154
R300 GND.n386 GND.n385 9.154
R301 GND.n387 GND.n386 9.154
R302 GND.n259 GND.n258 9.154
R303 GND.n388 GND.n259 9.154
R304 GND.n391 GND.n390 9.154
R305 GND.n390 GND.n389 9.154
R306 GND.n256 GND.n255 9.154
R307 GND.n255 GND.n254 9.154
R308 GND.n396 GND.n395 9.154
R309 GND.n397 GND.n396 9.154
R310 GND.n253 GND.n252 9.154
R311 GND.n309 GND.n308 9.154
R312 GND.n310 GND.n309 9.154
R313 GND.n302 GND.n301 9.154
R314 GND.n311 GND.n302 9.154
R315 GND.n314 GND.n313 9.154
R316 GND.n313 GND.n312 9.154
R317 GND.n299 GND.n298 9.154
R318 GND.n298 GND.n297 9.154
R319 GND.n320 GND.n319 9.154
R320 GND.n321 GND.n320 9.154
R321 GND.n296 GND.n295 9.154
R322 GND.n322 GND.n296 9.154
R323 GND.n326 GND.n325 9.154
R324 GND.n325 GND.n324 9.154
R325 GND.n291 GND.n290 9.154
R326 GND.n323 GND.n290 9.154
R327 GND.n331 GND.n330 9.154
R328 GND.n332 GND.n331 9.154
R329 GND.n289 GND.n288 9.154
R330 GND.n333 GND.n289 9.154
R331 GND.n336 GND.n335 9.154
R332 GND.n335 GND.n334 9.154
R333 GND.n286 GND.n285 9.154
R334 GND.n285 GND.n284 9.154
R335 GND.n342 GND.n341 9.154
R336 GND.n343 GND.n342 9.154
R337 GND.n283 GND.n282 9.154
R338 GND.n344 GND.n283 9.154
R339 GND.n347 GND.n346 9.154
R340 GND.n346 GND.n345 9.154
R341 GND.n280 GND.n279 9.154
R342 GND.n279 GND.n278 9.154
R343 GND.n352 GND.n351 9.154
R344 GND.n353 GND.n352 9.154
R345 GND.n277 GND.n276 9.154
R346 GND.n250 GND.n249 9.154
R347 GND.n404 GND.n250 9.154
R348 GND.n407 GND.n406 9.154
R349 GND.n406 GND.n405 9.154
R350 GND.n247 GND.n246 9.154
R351 GND.n246 GND.n245 9.154
R352 GND.n412 GND.n411 9.154
R353 GND.n413 GND.n412 9.154
R354 GND.n244 GND.n243 9.154
R355 GND.n414 GND.n244 9.154
R356 GND.n417 GND.n416 9.154
R357 GND.n416 GND.n415 9.154
R358 GND.n241 GND.n240 9.154
R359 GND.n240 GND.n239 9.154
R360 GND.n423 GND.n422 9.154
R361 GND.n424 GND.n423 9.154
R362 GND.n238 GND.n237 9.154
R363 GND.n425 GND.n238 9.154
R364 GND.n428 GND.n427 9.154
R365 GND.n427 GND.n426 9.154
R366 GND.n235 GND.n234 9.154
R367 GND.n234 GND.n233 9.154
R368 GND.n436 GND.n435 9.154
R369 GND.n437 GND.n436 9.154
R370 GND.n232 GND.n231 9.154
R371 GND.n438 GND.n232 9.154
R372 GND.n442 GND.n441 9.154
R373 GND.n441 GND.n440 9.154
R374 GND.n230 GND.n229 9.154
R375 GND.n439 GND.n229 9.154
R376 GND.n448 GND.n447 9.154
R377 GND.n449 GND.n448 9.154
R378 GND.n228 GND.n227 9.154
R379 GND.n450 GND.n228 9.154
R380 GND.n454 GND.n453 9.154
R381 GND.n453 GND.n452 9.154
R382 GND.n225 GND.n224 9.154
R383 GND.n451 GND.n224 9.154
R384 GND.n459 GND.n458 9.154
R385 GND.n460 GND.n459 9.154
R386 GND.n223 GND.n222 9.154
R387 GND.n461 GND.n223 9.154
R388 GND.n465 GND.n464 9.154
R389 GND.n464 GND.n463 9.154
R390 GND.n219 GND.n218 9.154
R391 GND.n462 GND.n218 9.154
R392 GND.n470 GND.n469 9.154
R393 GND.n471 GND.n470 9.154
R394 GND.n220 GND.n217 9.154
R395 GND.n472 GND.n217 9.154
R396 GND.n474 GND.n473 9.154
R397 GND.n403 GND.n402 9.154
R398 GND.n9 GND.n8 9.154
R399 GND.n13 GND.n12 9.154
R400 GND.n12 GND.n11 9.154
R401 GND.n17 GND.n16 9.154
R402 GND.n16 GND.n15 9.154
R403 GND.n21 GND.n20 9.154
R404 GND.n20 GND.n19 9.154
R405 GND.n25 GND.n24 9.154
R406 GND.n24 GND.n23 9.154
R407 GND.n29 GND.n28 9.154
R408 GND.n28 GND.n27 9.154
R409 GND.n33 GND.n32 9.154
R410 GND.n32 GND.n31 9.154
R411 GND.n37 GND.n36 9.154
R412 GND.n36 GND.n35 9.154
R413 GND.n42 GND.n41 9.154
R414 GND.n41 GND.n40 9.154
R415 GND.n46 GND.n45 9.154
R416 GND.n45 GND.n44 9.154
R417 GND.n50 GND.n49 9.154
R418 GND.n49 GND.n48 9.154
R419 GND.n53 GND.n5 9.154
R420 GND.n5 GND.n4 9.154
R421 GND.n56 GND.n55 9.154
R422 GND.n55 GND.n54 9.154
R423 GND.n60 GND.n59 9.154
R424 GND.n59 GND.n58 9.154
R425 GND.n64 GND.n63 9.154
R426 GND.n63 GND.n62 9.154
R427 GND.n69 GND.n68 9.154
R428 GND.n68 GND.n67 9.154
R429 GND.n73 GND.n72 9.154
R430 GND.n72 GND.n71 9.154
R431 GND.n77 GND.n76 9.154
R432 GND.n76 GND.n75 9.154
R433 GND.n81 GND.n80 9.154
R434 GND.n80 GND.n79 9.154
R435 GND.n85 GND.n84 9.154
R436 GND.n84 GND.n83 9.154
R437 GND.n89 GND.n88 9.154
R438 GND.n88 GND.n87 9.154
R439 GND.n93 GND.n92 9.154
R440 GND.n92 GND.n91 9.154
R441 GND.n97 GND.n96 9.154
R442 GND.n105 GND.n104 9.154
R443 GND.n109 GND.n108 9.154
R444 GND.n108 GND.n107 9.154
R445 GND.n113 GND.n112 9.154
R446 GND.n112 GND.n111 9.154
R447 GND.n117 GND.n116 9.154
R448 GND.n116 GND.n115 9.154
R449 GND.n122 GND.n121 9.154
R450 GND.n121 GND.n120 9.154
R451 GND.n126 GND.n125 9.154
R452 GND.n125 GND.n124 9.154
R453 GND.n130 GND.n129 9.154
R454 GND.n129 GND.n128 9.154
R455 GND.n133 GND.n2 9.154
R456 GND.n2 GND.n1 9.154
R457 GND.n136 GND.n135 9.154
R458 GND.n135 GND.n134 9.154
R459 GND.n140 GND.n139 9.154
R460 GND.n139 GND.n138 9.154
R461 GND.n144 GND.n143 9.154
R462 GND.n143 GND.n142 9.154
R463 GND.n149 GND.n148 9.154
R464 GND.n148 GND.n147 9.154
R465 GND.n153 GND.n152 9.154
R466 GND.n152 GND.n151 9.154
R467 GND.n157 GND.n156 9.154
R468 GND.n156 GND.n155 9.154
R469 GND.n161 GND.n160 9.154
R470 GND.n169 GND.n168 9.154
R471 GND.n173 GND.n172 9.154
R472 GND.n172 GND.n171 9.154
R473 GND.n177 GND.n176 9.154
R474 GND.n176 GND.n175 9.154
R475 GND.n181 GND.n180 9.154
R476 GND.n180 GND.n179 9.154
R477 GND.n185 GND.n184 9.154
R478 GND.n184 GND.n183 9.154
R479 GND.n189 GND.n188 9.154
R480 GND.n188 GND.n187 9.154
R481 GND.n193 GND.n192 9.154
R482 GND.n192 GND.n191 9.154
R483 GND.n197 GND.n196 9.154
R484 GND.n196 GND.n195 9.154
R485 GND.n202 GND.n201 9.154
R486 GND.n201 GND.n200 9.154
R487 GND.n206 GND.n205 9.154
R488 GND.n205 GND.n204 9.154
R489 GND.n210 GND.n209 9.154
R490 GND.n209 GND.n208 9.154
R491 GND.n214 GND.n213 9.154
R492 GND.n213 GND.n212 9.154
R493 GND.n519 GND.n518 9.154
R494 GND.n518 GND.n517 9.154
R495 GND.n515 GND.n514 9.154
R496 GND.n514 GND.n513 9.154
R497 GND.n511 GND.n510 9.154
R498 GND.n510 GND.n509 9.154
R499 GND.n506 GND.n505 9.154
R500 GND.n505 GND.n504 9.154
R501 GND.n502 GND.n501 9.154
R502 GND.n501 GND.n500 9.154
R503 GND.n498 GND.n497 9.154
R504 GND.n497 GND.n496 9.154
R505 GND.n494 GND.n493 9.154
R506 GND.n493 GND.n492 9.154
R507 GND.n490 GND.n489 9.154
R508 GND.n489 GND.n488 9.154
R509 GND.n486 GND.n485 9.154
R510 GND.n485 GND.n484 9.154
R511 GND.n482 GND.n481 9.154
R512 GND.n481 GND.n480 9.154
R513 GND.n478 GND.n477 9.154
R514 GND.n433 GND.n432 5.103
R515 GND.n433 GND.n431 5.103
R516 GND.n329 GND.n293 5.103
R517 GND.n329 GND.n292 5.103
R518 GND.n381 GND.n264 5.103
R519 GND.n381 GND.n263 5.103
R520 GND.n215 GND.n0 5.103
R521 GND.n132 GND.n3 5.103
R522 GND.n52 GND.n6 5.103