* NGSPICE file created from EESPFAL_s0_flat.ext - technology: sky130A

.subckt EESPFAL_s0_flat GND x0 x0_bar x1 x1_bar x2 x2_bar x3 x3_bar Dis1 Dis2 Dis3
+ s0 s0_bar CLK3 CLK2 CLK1
X0 EESPFAL_NAND_v3_0/OUT_bar Dis2.t0 GND.t43 GND.t12 sky130_fd_pr__nfet_01v8 ad=2.7e+12p pd=1.26e+07u as=0p ps=0u w=1.5e+06u l=150000u
X1 a_6340_2870# EESPFAL_NAND_v3_0/B EESPFAL_NAND_v3_0/OUT GND.t34 sky130_fd_pr__nfet_01v8 ad=9e+11p pd=4.2e+06u as=1.8e+12p ps=8.4e+06u w=1.5e+06u l=150000u
X2 CLK2.t17 EESPFAL_NOR_v3_0/B_bar EESPFAL_NOR_v3_0/B CLK2.t16 sky130_fd_pr__pfet_01v8 ad=0p pd=0u as=9e+11p ps=4.2e+06u w=1.5e+06u l=150000u
X3 EESPFAL_NAND_v3_0/B_bar EESPFAL_NAND_v3_0/B CLK1.t21 CLK1.t20 sky130_fd_pr__pfet_01v8 ad=9e+11p pd=4.2e+06u as=0p ps=0u w=1.5e+06u l=150000u
X4 CLK1.t0 x2_bar.t0 EESPFAL_NAND_v3_0/B GND.t3 sky130_fd_pr__nfet_01v8 ad=0p pd=0u as=2.7e+12p ps=1.26e+07u w=1.5e+06u l=150000u
X5 EESPFAL_NAND_v3_0/A.t4 EESPFAL_NAND_v3_0/A_bar.t6 CLK1.t33 CLK1.t32 sky130_fd_pr__pfet_01v8 ad=0p pd=0u as=0p ps=0u w=1.5e+06u l=150000u
X6 CLK1.t8 EESPFAL_NAND_v3_0/A_bar.t7 EESPFAL_NAND_v3_0/A.t3 CLK1.t7 sky130_fd_pr__pfet_01v8 ad=0p pd=0u as=0p ps=0u w=1.5e+06u l=150000u
X7 GND.t33 EESPFAL_NAND_v3_0/B EESPFAL_NAND_v3_0/B_bar GND.t14 sky130_fd_pr__nfet_01v8 ad=0p pd=0u as=1.8e+12p ps=8.4e+06u w=1.5e+06u l=150000u
X8 EESPFAL_NAND_v3_0/B EESPFAL_NAND_v3_0/B_bar GND.t32 GND.t31 sky130_fd_pr__nfet_01v8 ad=0p pd=0u as=0p ps=0u w=1.5e+06u l=150000u
X9 EESPFAL_NAND_v3_0/B x1.t0 CLK1.t29 GND.t25 sky130_fd_pr__nfet_01v8 ad=0p pd=0u as=0p ps=0u w=1.5e+06u l=150000u
X10 EESPFAL_NAND_v3_1/B_bar Dis1.t0 GND.t46 GND.t10 sky130_fd_pr__nfet_01v8 ad=2.7e+12p pd=1.26e+07u as=0p ps=0u w=1.5e+06u l=150000u
X11 CLK1.t25 x2.t0 a_2000_2190# GND.t47 sky130_fd_pr__nfet_01v8 ad=0p pd=0u as=9e+11p ps=4.2e+06u w=1.5e+06u l=150000u
X12 GND.t23 Dis3.t0 s0_bar.t1 GND.t22 sky130_fd_pr__nfet_01v8 ad=0p pd=0u as=0p ps=0u w=1.5e+06u l=150000u
X13 GND.t27 EESPFAL_NAND_v3_1/B EESPFAL_NAND_v3_1/B_bar GND.t20 sky130_fd_pr__nfet_01v8 ad=0p pd=0u as=0p ps=0u w=1.5e+06u l=150000u
X14 CLK3.t10 EESPFAL_NAND_v3_0/OUT s0.t5 GND.t30 sky130_fd_pr__nfet_01v8 ad=0p pd=0u as=0p ps=0u w=1.5e+06u l=150000u
X15 s0.t1 EESPFAL_NOR_v3_0/B CLK3.t1 GND.t16 sky130_fd_pr__nfet_01v8 ad=0p pd=0u as=0p ps=0u w=1.5e+06u l=150000u
X16 EESPFAL_NAND_v3_0/A_bar.t2 x3.t0 a_740_2870# GND.t19 sky130_fd_pr__nfet_01v8 ad=0p pd=0u as=9e+11p ps=4.2e+06u w=1.5e+06u l=150000u
X17 a_2000_2870# x3_bar.t0 EESPFAL_NAND_v3_0/A.t0 GND.t8 sky130_fd_pr__nfet_01v8 ad=9e+11p pd=4.2e+06u as=0p ps=0u w=1.5e+06u l=150000u
X18 EESPFAL_NOR_v3_0/B_bar EESPFAL_NAND_v3_0/A.t6 CLK2.t10 GND.t4 sky130_fd_pr__nfet_01v8 ad=2.7e+12p pd=1.26e+07u as=0p ps=0u w=1.5e+06u l=150000u
X19 CLK3.t5 s0.t6 s0_bar.t0 CLK3.t4 sky130_fd_pr__pfet_01v8 ad=0p pd=0u as=0p ps=0u w=1.5e+06u l=150000u
X20 EESPFAL_NAND_v3_0/OUT_bar EESPFAL_NAND_v3_0/OUT CLK2.t21 CLK2.t20 sky130_fd_pr__pfet_01v8 ad=9e+11p pd=4.2e+06u as=0p ps=0u w=1.5e+06u l=150000u
X21 EESPFAL_NAND_v3_1/B_bar EESPFAL_NAND_v3_1/B CLK1.t13 CLK1.t12 sky130_fd_pr__pfet_01v8 ad=9e+11p pd=4.2e+06u as=0p ps=0u w=1.5e+06u l=150000u
X22 CLK1.t11 EESPFAL_NAND_v3_1/B EESPFAL_NAND_v3_1/B_bar CLK1.t10 sky130_fd_pr__pfet_01v8 ad=0p pd=0u as=0p ps=0u w=1.5e+06u l=150000u
X23 CLK1.t19 EESPFAL_NAND_v3_0/B EESPFAL_NAND_v3_0/B_bar CLK1.t18 sky130_fd_pr__pfet_01v8 ad=0p pd=0u as=0p ps=0u w=1.5e+06u l=150000u
X24 EESPFAL_NAND_v3_0/B EESPFAL_NAND_v3_0/B_bar CLK1.t17 CLK1.t16 sky130_fd_pr__pfet_01v8 ad=9e+11p pd=4.2e+06u as=0p ps=0u w=1.5e+06u l=150000u
X25 GND.t51 EESPFAL_NAND_v3_0/OUT EESPFAL_NAND_v3_0/OUT_bar GND.t17 sky130_fd_pr__nfet_01v8 ad=0p pd=0u as=0p ps=0u w=1.5e+06u l=150000u
X26 EESPFAL_NAND_v3_0/OUT EESPFAL_NAND_v3_0/OUT_bar GND.t2 GND.t1 sky130_fd_pr__nfet_01v8 ad=0p pd=0u as=0p ps=0u w=1.5e+06u l=150000u
X27 CLK2.t9 EESPFAL_NAND_v3_0/A.t7 a_6340_2870# GND.t0 sky130_fd_pr__nfet_01v8 ad=0p pd=0u as=0p ps=0u w=1.5e+06u l=150000u
X28 GND.t38 Dis1.t1 EESPFAL_NAND_v3_0/B GND.t37 sky130_fd_pr__nfet_01v8 ad=0p pd=0u as=0p ps=0u w=1.5e+06u l=150000u
X29 EESPFAL_NOR_v3_0/B_bar Dis2.t1 GND.t42 GND.t41 sky130_fd_pr__nfet_01v8 ad=0p pd=0u as=0p ps=0u w=1.5e+06u l=150000u
X30 EESPFAL_NAND_v3_1/B EESPFAL_NAND_v3_1/B_bar GND.t7 GND.t6 sky130_fd_pr__nfet_01v8 ad=1.8e+12p pd=8.4e+06u as=0p ps=0u w=1.5e+06u l=150000u
X31 GND.t49 Dis1.t2 EESPFAL_NAND_v3_1/B GND.t35 sky130_fd_pr__nfet_01v8 ad=0p pd=0u as=0p ps=0u w=1.5e+06u l=150000u
X32 a_3060_2870# x1_bar.t0 CLK1.t9 GND.t5 sky130_fd_pr__nfet_01v8 ad=9e+11p pd=4.2e+06u as=0p ps=0u w=1.5e+06u l=150000u
X33 EESPFAL_NOR_v3_0/B_bar EESPFAL_NOR_v3_0/B CLK2.t8 CLK2.t7 sky130_fd_pr__pfet_01v8 ad=9e+11p pd=4.2e+06u as=0p ps=0u w=1.5e+06u l=150000u
X34 CLK2.t19 EESPFAL_NAND_v3_0/OUT EESPFAL_NAND_v3_0/OUT_bar CLK2.t18 sky130_fd_pr__pfet_01v8 ad=0p pd=0u as=0p ps=0u w=1.5e+06u l=150000u
X35 CLK1.t22 x1.t1 EESPFAL_NAND_v3_1/B_bar GND.t45 sky130_fd_pr__nfet_01v8 ad=0p pd=0u as=0p ps=0u w=1.5e+06u l=150000u
X36 EESPFAL_NAND_v3_1/B EESPFAL_NAND_v3_1/B_bar CLK1.t4 CLK1.t3 sky130_fd_pr__pfet_01v8 ad=9e+11p pd=4.2e+06u as=0p ps=0u w=1.5e+06u l=150000u
X37 EESPFAL_NAND_v3_0/OUT EESPFAL_NAND_v3_0/OUT_bar CLK2.t3 CLK2.t2 sky130_fd_pr__pfet_01v8 ad=9e+11p pd=4.2e+06u as=0p ps=0u w=1.5e+06u l=150000u
X38 GND.t40 Dis2.t2 EESPFAL_NAND_v3_0/OUT GND.t22 sky130_fd_pr__nfet_01v8 ad=0p pd=0u as=0p ps=0u w=1.5e+06u l=150000u
X39 CLK1.t2 EESPFAL_NAND_v3_1/B_bar EESPFAL_NAND_v3_1/B CLK1.t1 sky130_fd_pr__pfet_01v8 ad=0p pd=0u as=0p ps=0u w=1.5e+06u l=150000u
X40 CLK1.t15 EESPFAL_NAND_v3_0/B_bar EESPFAL_NAND_v3_0/B CLK1.t14 sky130_fd_pr__pfet_01v8 ad=0p pd=0u as=0p ps=0u w=1.5e+06u l=150000u
X41 EESPFAL_NAND_v3_0/A_bar.t0 Dis1.t3 GND.t11 GND.t10 sky130_fd_pr__nfet_01v8 ad=0p pd=0u as=0p ps=0u w=1.5e+06u l=150000u
X42 GND.t21 EESPFAL_NAND_v3_0/A.t8 EESPFAL_NAND_v3_0/A_bar.t1 GND.t20 sky130_fd_pr__nfet_01v8 ad=0p pd=0u as=0p ps=0u w=1.5e+06u l=150000u
X43 CLK1.t24 x0.t0 a_2000_2870# GND.t47 sky130_fd_pr__nfet_01v8 ad=0p pd=0u as=0p ps=0u w=1.5e+06u l=150000u
X44 s0.t0 Dis3.t1 GND.t13 GND.t12 sky130_fd_pr__nfet_01v8 ad=0p pd=0u as=0p ps=0u w=1.5e+06u l=150000u
X45 a_6340_2190# EESPFAL_NOR_v3_0/B_bar s0_bar.t4 GND.t34 sky130_fd_pr__nfet_01v8 ad=9e+11p pd=4.2e+06u as=0p ps=0u w=1.5e+06u l=150000u
X46 GND.t15 EESPFAL_NOR_v3_0/B EESPFAL_NOR_v3_0/B_bar GND.t14 sky130_fd_pr__nfet_01v8 ad=0p pd=0u as=0p ps=0u w=1.5e+06u l=150000u
X47 a_4320_2190# EESPFAL_NAND_v3_1/B EESPFAL_NOR_v3_0/B GND.t3 sky130_fd_pr__nfet_01v8 ad=9e+11p pd=4.2e+06u as=1.8e+12p ps=8.4e+06u w=1.5e+06u l=150000u
X48 CLK2.t11 EESPFAL_NAND_v3_0/A_bar.t8 a_4320_2190# GND.t25 sky130_fd_pr__nfet_01v8 ad=0p pd=0u as=0p ps=0u w=1.5e+06u l=150000u
X49 CLK2.t13 EESPFAL_NAND_v3_0/B_bar EESPFAL_NAND_v3_0/OUT_bar GND.t30 sky130_fd_pr__nfet_01v8 ad=0p pd=0u as=0p ps=0u w=1.5e+06u l=150000u
X50 EESPFAL_NAND_v3_0/OUT_bar EESPFAL_NAND_v3_0/A_bar.t9 CLK2.t12 GND.t16 sky130_fd_pr__nfet_01v8 ad=0p pd=0u as=0p ps=0u w=1.5e+06u l=150000u
X51 EESPFAL_NOR_v3_0/B EESPFAL_NOR_v3_0/B_bar GND.t50 GND.t31 sky130_fd_pr__nfet_01v8 ad=0p pd=0u as=0p ps=0u w=1.5e+06u l=150000u
X52 EESPFAL_NAND_v3_0/B_bar x2.t1 a_3060_2870# GND.t4 sky130_fd_pr__nfet_01v8 ad=0p pd=0u as=0p ps=0u w=1.5e+06u l=150000u
X53 a_440_2870# x3_bar.t1 EESPFAL_NAND_v3_0/A_bar.t3 GND.t28 sky130_fd_pr__nfet_01v8 ad=9e+11p pd=4.2e+06u as=0p ps=0u w=1.5e+06u l=150000u
X54 s0.t3 s0_bar.t5 CLK3.t9 CLK3.t8 sky130_fd_pr__pfet_01v8 ad=0p pd=0u as=0p ps=0u w=1.5e+06u l=150000u
X55 EESPFAL_NAND_v3_1/B_bar x2_bar.t1 CLK1.t6 GND.t19 sky130_fd_pr__nfet_01v8 ad=0p pd=0u as=0p ps=0u w=1.5e+06u l=150000u
X56 a_2000_2190# x1_bar.t1 EESPFAL_NAND_v3_1/B GND.t8 sky130_fd_pr__nfet_01v8 ad=0p pd=0u as=0p ps=0u w=1.5e+06u l=150000u
X57 CLK2.t6 EESPFAL_NOR_v3_0/B EESPFAL_NOR_v3_0/B_bar CLK2.t5 sky130_fd_pr__pfet_01v8 ad=0p pd=0u as=0p ps=0u w=1.5e+06u l=150000u
X58 EESPFAL_NOR_v3_0/B EESPFAL_NOR_v3_0/B_bar CLK2.t15 CLK2.t14 sky130_fd_pr__pfet_01v8 ad=0p pd=0u as=0p ps=0u w=1.5e+06u l=150000u
X59 EESPFAL_NAND_v3_0/A_bar.t5 EESPFAL_NAND_v3_0/A.t9 CLK1.t31 CLK1.t30 sky130_fd_pr__pfet_01v8 ad=0p pd=0u as=0p ps=0u w=1.5e+06u l=150000u
X60 CLK1.t28 EESPFAL_NAND_v3_0/A.t10 EESPFAL_NAND_v3_0/A_bar.t4 CLK1.t27 sky130_fd_pr__pfet_01v8 ad=0p pd=0u as=0p ps=0u w=1.5e+06u l=150000u
X61 CLK2.t1 EESPFAL_NAND_v3_0/OUT_bar EESPFAL_NAND_v3_0/OUT CLK2.t0 sky130_fd_pr__pfet_01v8 ad=0p pd=0u as=0p ps=0u w=1.5e+06u l=150000u
X62 EESPFAL_NAND_v3_0/B_bar Dis1.t4 GND.t44 GND.t41 sky130_fd_pr__nfet_01v8 ad=0p pd=0u as=0p ps=0u w=1.5e+06u l=150000u
X63 EESPFAL_NAND_v3_0/A.t2 EESPFAL_NAND_v3_0/A_bar.t10 GND.t24 GND.t6 sky130_fd_pr__nfet_01v8 ad=0p pd=0u as=0p ps=0u w=1.5e+06u l=150000u
X64 a_2300_2870# x0_bar.t0 CLK1.t26 GND.t48 sky130_fd_pr__nfet_01v8 ad=9e+11p pd=4.2e+06u as=0p ps=0u w=1.5e+06u l=150000u
X65 GND.t18 s0_bar.t6 s0.t2 GND.t17 sky130_fd_pr__nfet_01v8 ad=0p pd=0u as=0p ps=0u w=1.5e+06u l=150000u
X66 CLK3.t0 EESPFAL_NAND_v3_0/OUT_bar a_6340_2190# GND.t0 sky130_fd_pr__nfet_01v8 ad=0p pd=0u as=0p ps=0u w=1.5e+06u l=150000u
X67 GND.t36 Dis1.t5 EESPFAL_NAND_v3_0/A.t5 GND.t35 sky130_fd_pr__nfet_01v8 ad=0p pd=0u as=0p ps=0u w=1.5e+06u l=150000u
X68 EESPFAL_NAND_v3_0/A.t1 x3.t1 a_2300_2870# GND.t29 sky130_fd_pr__nfet_01v8 ad=0p pd=0u as=0p ps=0u w=1.5e+06u l=150000u
X69 s0_bar.t3 s0.t7 GND.t26 GND.t1 sky130_fd_pr__nfet_01v8 ad=0p pd=0u as=0p ps=0u w=1.5e+06u l=150000u
X70 GND.t39 Dis2.t3 EESPFAL_NOR_v3_0/B GND.t37 sky130_fd_pr__nfet_01v8 ad=0p pd=0u as=0p ps=0u w=1.5e+06u l=150000u
X71 CLK1.t5 x0_bar.t1 a_440_2870# GND.t9 sky130_fd_pr__nfet_01v8 ad=0p pd=0u as=0p ps=0u w=1.5e+06u l=150000u
X72 a_740_2870# x0.t1 CLK1.t23 GND.t45 sky130_fd_pr__nfet_01v8 ad=0p pd=0u as=0p ps=0u w=1.5e+06u l=150000u
X73 CLK2.t4 EESPFAL_NAND_v3_1/B_bar EESPFAL_NOR_v3_0/B_bar GND.t5 sky130_fd_pr__nfet_01v8 ad=0p pd=0u as=0p ps=0u w=1.5e+06u l=150000u
X74 CLK3.t7 s0_bar.t7 s0.t4 CLK3.t6 sky130_fd_pr__pfet_01v8 ad=0p pd=0u as=0p ps=0u w=1.5e+06u l=150000u
X75 s0_bar.t2 s0.t8 CLK3.t3 CLK3.t2 sky130_fd_pr__pfet_01v8 ad=0p pd=0u as=0p ps=0u w=1.5e+06u l=150000u
R0 Dis2.n0 Dis2.t2 504.5
R1 Dis2.n3 Dis2.n2 403.84
R2 Dis2.n2 Dis2.t3 389.3
R3 Dis2.n1 Dis2.t1 389.3
R4 Dis2.n0 Dis2.t0 389.3
R5 Dis2 Dis2.n3 149.76
R6 Dis2.n2 Dis2.n1 115.2
R7 Dis2.n3 Dis2 7.383
R8 Dis2.n1 EESPFAL_NAND_v3_1/Dis 3.2
R9 Dis2 Dis2.n0 3.2
R10 GND.n224 GND.t28 269.289
R11 GND.n168 GND.t29 269.289
R12 GND.n230 GND.t9 133.857
R13 GND.n175 GND.t48 133.857
R14 GND.n6 GND.t0 70.155
R15 GND.n80 GND.t30 70.155
R16 GND.n88 GND.t25 70.155
R17 GND.n162 GND.t5 70.155
R18 GND.n183 GND.t47 63.953
R19 GND.n208 GND.t35 63.953
R20 GND.n263 GND.t10 63.953
R21 GND.n238 GND.t45 63.953
R22 GND.n31 GND.t22 63.953
R23 GND.n55 GND.t12 63.953
R24 GND.n113 GND.t37 63.953
R25 GND.n137 GND.t41 63.953
R26 GND.n225 GND 31.565
R27 GND.n30 GND.t40 29.103
R28 GND.n59 GND.t43 29.103
R29 GND.n112 GND.t38 29.103
R30 GND.n141 GND.t44 29.103
R31 GND.n207 GND.t36 29.103
R32 GND.n262 GND.t11 29.103
R33 GND.n30 GND.t23 29.102
R34 GND.n59 GND.t13 29.102
R35 GND.n112 GND.t39 29.102
R36 GND.n141 GND.t42 29.102
R37 GND.n207 GND.t49 29.102
R38 GND.n262 GND.t46 29.102
R39 GND.n1 GND.t7 24
R40 GND.n1 GND.t27 24
R41 GND.n0 GND.t24 24
R42 GND.n0 GND.t21 24
R43 GND.n5 GND.t26 24
R44 GND.n5 GND.t18 24
R45 GND.n4 GND.t2 24
R46 GND.n4 GND.t51 24
R47 GND.n3 GND.t50 24
R48 GND.n3 GND.t15 24
R49 GND.n2 GND.t32 24
R50 GND.n2 GND.t33 24
R51 GND.n191 GND.t8 21.317
R52 GND.n216 GND.t6 21.317
R53 GND.n271 GND.t20 21.317
R54 GND.n246 GND.t19 21.317
R55 GND.n14 GND.t34 21.317
R56 GND.n39 GND.t1 21.317
R57 GND.n47 GND.t17 21.317
R58 GND.n72 GND.t16 21.317
R59 GND.n96 GND.t3 21.317
R60 GND.n121 GND.t31 21.317
R61 GND.n129 GND.t14 21.317
R62 GND.n154 GND.t4 21.317
R63 GND.n49 GND.n46 12.8
R64 GND.n131 GND.n128 12.8
R65 GND.n8 GND.n7 9.154
R66 GND.n90 GND.n89 9.154
R67 GND.n94 GND.n93 9.154
R68 GND.n93 GND.n92 9.154
R69 GND.n98 GND.n97 9.154
R70 GND.n97 GND.n96 9.154
R71 GND.n102 GND.n101 9.154
R72 GND.n101 GND.n100 9.154
R73 GND.n106 GND.n105 9.154
R74 GND.n105 GND.n104 9.154
R75 GND.n110 GND.n109 9.154
R76 GND.n109 GND.n108 9.154
R77 GND.n115 GND.n114 9.154
R78 GND.n114 GND.n113 9.154
R79 GND.n119 GND.n118 9.154
R80 GND.n118 GND.n117 9.154
R81 GND.n123 GND.n122 9.154
R82 GND.n122 GND.n121 9.154
R83 GND.n128 GND.n127 9.154
R84 GND.n127 GND.n126 9.154
R85 GND.n131 GND.n130 9.154
R86 GND.n130 GND.n129 9.154
R87 GND.n135 GND.n134 9.154
R88 GND.n134 GND.n133 9.154
R89 GND.n139 GND.n138 9.154
R90 GND.n138 GND.n137 9.154
R91 GND.n144 GND.n143 9.154
R92 GND.n143 GND.n142 9.154
R93 GND.n148 GND.n147 9.154
R94 GND.n147 GND.n146 9.154
R95 GND.n152 GND.n151 9.154
R96 GND.n151 GND.n150 9.154
R97 GND.n156 GND.n155 9.154
R98 GND.n155 GND.n154 9.154
R99 GND.n160 GND.n159 9.154
R100 GND.n159 GND.n158 9.154
R101 GND.n164 GND.n163 9.154
R102 GND.n12 GND.n11 9.154
R103 GND.n11 GND.n10 9.154
R104 GND.n16 GND.n15 9.154
R105 GND.n15 GND.n14 9.154
R106 GND.n20 GND.n19 9.154
R107 GND.n19 GND.n18 9.154
R108 GND.n24 GND.n23 9.154
R109 GND.n23 GND.n22 9.154
R110 GND.n28 GND.n27 9.154
R111 GND.n27 GND.n26 9.154
R112 GND.n33 GND.n32 9.154
R113 GND.n32 GND.n31 9.154
R114 GND.n37 GND.n36 9.154
R115 GND.n36 GND.n35 9.154
R116 GND.n41 GND.n40 9.154
R117 GND.n40 GND.n39 9.154
R118 GND.n46 GND.n45 9.154
R119 GND.n45 GND.n44 9.154
R120 GND.n49 GND.n48 9.154
R121 GND.n48 GND.n47 9.154
R122 GND.n53 GND.n52 9.154
R123 GND.n52 GND.n51 9.154
R124 GND.n57 GND.n56 9.154
R125 GND.n56 GND.n55 9.154
R126 GND.n62 GND.n61 9.154
R127 GND.n61 GND.n60 9.154
R128 GND.n66 GND.n65 9.154
R129 GND.n65 GND.n64 9.154
R130 GND.n70 GND.n69 9.154
R131 GND.n69 GND.n68 9.154
R132 GND.n74 GND.n73 9.154
R133 GND.n73 GND.n72 9.154
R134 GND.n78 GND.n77 9.154
R135 GND.n77 GND.n76 9.154
R136 GND.n82 GND.n81 9.154
R137 GND.n173 GND.n172 9.154
R138 GND.n172 GND.n171 9.154
R139 GND.n177 GND.n176 9.154
R140 GND.n176 GND.n175 9.154
R141 GND.n181 GND.n180 9.154
R142 GND.n180 GND.n179 9.154
R143 GND.n185 GND.n184 9.154
R144 GND.n184 GND.n183 9.154
R145 GND.n189 GND.n188 9.154
R146 GND.n188 GND.n187 9.154
R147 GND.n193 GND.n192 9.154
R148 GND.n192 GND.n191 9.154
R149 GND.n197 GND.n196 9.154
R150 GND.n196 GND.n195 9.154
R151 GND.n201 GND.n200 9.154
R152 GND.n200 GND.n199 9.154
R153 GND.n205 GND.n204 9.154
R154 GND.n204 GND.n203 9.154
R155 GND.n210 GND.n209 9.154
R156 GND.n209 GND.n208 9.154
R157 GND.n214 GND.n213 9.154
R158 GND.n213 GND.n212 9.154
R159 GND.n218 GND.n217 9.154
R160 GND.n217 GND.n216 9.154
R161 GND.n222 GND.n221 9.154
R162 GND.n221 GND.n220 9.154
R163 GND.n273 GND.n272 9.154
R164 GND.n272 GND.n271 9.154
R165 GND.n269 GND.n268 9.154
R166 GND.n268 GND.n267 9.154
R167 GND.n265 GND.n264 9.154
R168 GND.n264 GND.n263 9.154
R169 GND.n260 GND.n259 9.154
R170 GND.n259 GND.n258 9.154
R171 GND.n256 GND.n255 9.154
R172 GND.n255 GND.n254 9.154
R173 GND.n252 GND.n251 9.154
R174 GND.n251 GND.n250 9.154
R175 GND.n248 GND.n247 9.154
R176 GND.n247 GND.n246 9.154
R177 GND.n244 GND.n243 9.154
R178 GND.n243 GND.n242 9.154
R179 GND.n240 GND.n239 9.154
R180 GND.n239 GND.n238 9.154
R181 GND.n236 GND.n235 9.154
R182 GND.n235 GND.n234 9.154
R183 GND.n232 GND.n231 9.154
R184 GND.n231 GND.n230 9.154
R185 GND.n228 GND.n227 9.154
R186 GND.n227 GND.n226 9.154
R187 GND.n225 GND.n224 9.154
R188 GND.n169 GND.n168 9.154
R189 GND.n223 GND.n1 5.103
R190 GND.n223 GND.n0 5.103
R191 GND.n43 GND.n5 5.103
R192 GND.n43 GND.n4 5.103
R193 GND.n125 GND.n3 5.103
R194 GND.n125 GND.n2 5.103
R195 GND.n167 GND.n166 4.65
R196 GND.n91 GND.n90 4.65
R197 GND.n95 GND.n94 4.65
R198 GND.n99 GND.n98 4.65
R199 GND.n103 GND.n102 4.65
R200 GND.n107 GND.n106 4.65
R201 GND.n111 GND.n110 4.65
R202 GND.n116 GND.n115 4.65
R203 GND.n120 GND.n119 4.65
R204 GND.n124 GND.n123 4.65
R205 GND.n128 GND.n125 4.65
R206 GND.n132 GND.n131 4.65
R207 GND.n136 GND.n135 4.65
R208 GND.n140 GND.n139 4.65
R209 GND.n145 GND.n144 4.65
R210 GND.n149 GND.n148 4.65
R211 GND.n153 GND.n152 4.65
R212 GND.n157 GND.n156 4.65
R213 GND.n161 GND.n160 4.65
R214 GND.n165 GND.n164 4.65
R215 GND.n87 GND.n86 4.65
R216 GND.n85 GND.n84 4.65
R217 GND.n13 GND.n12 4.65
R218 GND.n17 GND.n16 4.65
R219 GND.n21 GND.n20 4.65
R220 GND.n25 GND.n24 4.65
R221 GND.n29 GND.n28 4.65
R222 GND.n34 GND.n33 4.65
R223 GND.n38 GND.n37 4.65
R224 GND.n42 GND.n41 4.65
R225 GND.n46 GND.n43 4.65
R226 GND.n50 GND.n49 4.65
R227 GND.n54 GND.n53 4.65
R228 GND.n58 GND.n57 4.65
R229 GND.n63 GND.n62 4.65
R230 GND.n67 GND.n66 4.65
R231 GND.n71 GND.n70 4.65
R232 GND.n75 GND.n74 4.65
R233 GND.n79 GND.n78 4.65
R234 GND.n83 GND.n82 4.65
R235 GND.n174 GND.n173 4.65
R236 GND.n178 GND.n177 4.65
R237 GND.n182 GND.n181 4.65
R238 GND.n186 GND.n185 4.65
R239 GND.n190 GND.n189 4.65
R240 GND.n194 GND.n193 4.65
R241 GND.n198 GND.n197 4.65
R242 GND.n202 GND.n201 4.65
R243 GND.n206 GND.n205 4.65
R244 GND.n211 GND.n210 4.65
R245 GND.n215 GND.n214 4.65
R246 GND.n219 GND.n218 4.65
R247 GND.n223 GND.n222 4.65
R248 GND.n274 GND.n273 4.65
R249 GND.n270 GND.n269 4.65
R250 GND.n266 GND.n265 4.65
R251 GND.n261 GND.n260 4.65
R252 GND.n257 GND.n256 4.65
R253 GND.n253 GND.n252 4.65
R254 GND.n249 GND.n248 4.65
R255 GND.n245 GND.n244 4.65
R256 GND.n241 GND.n240 4.65
R257 GND.n237 GND.n236 4.65
R258 GND.n233 GND.n232 4.65
R259 GND.n170 GND.n169 4.65
R260 GND.n7 GND.n6 2.791
R261 GND.n89 GND.n88 2.791
R262 GND.n163 GND.n162 2.791
R263 GND.n81 GND.n80 2.791
R264 GND.n229 GND.n225 2.739
R265 GND.n9 GND.n8 2.682
R266 GND.n229 GND.n228 2.682
R267 GND.n13 GND.n9 1.095
R268 GND.n233 GND.n229 1.095
R269 GND.n170 GND.n167 0.6
R270 GND.n87 GND.n85 0.525
R271 GND.n17 GND.n13 0.1
R272 GND.n21 GND.n17 0.1
R273 GND.n25 GND.n21 0.1
R274 GND.n29 GND.n25 0.1
R275 GND.n38 GND.n34 0.1
R276 GND.n42 GND.n38 0.1
R277 GND.n43 GND.n42 0.1
R278 GND.n54 GND.n50 0.1
R279 GND.n58 GND.n54 0.1
R280 GND.n67 GND.n63 0.1
R281 GND.n71 GND.n67 0.1
R282 GND.n75 GND.n71 0.1
R283 GND.n79 GND.n75 0.1
R284 GND.n83 GND.n79 0.1
R285 GND.n85 GND.n83 0.1
R286 GND.n91 GND.n87 0.1
R287 GND.n95 GND.n91 0.1
R288 GND.n99 GND.n95 0.1
R289 GND.n103 GND.n99 0.1
R290 GND.n107 GND.n103 0.1
R291 GND.n111 GND.n107 0.1
R292 GND.n120 GND.n116 0.1
R293 GND.n124 GND.n120 0.1
R294 GND.n125 GND.n124 0.1
R295 GND.n136 GND.n132 0.1
R296 GND.n140 GND.n136 0.1
R297 GND.n149 GND.n145 0.1
R298 GND.n153 GND.n149 0.1
R299 GND.n157 GND.n153 0.1
R300 GND.n161 GND.n157 0.1
R301 GND.n165 GND.n161 0.1
R302 GND.n167 GND.n165 0.1
R303 GND.n174 GND.n170 0.1
R304 GND.n178 GND.n174 0.1
R305 GND.n182 GND.n178 0.1
R306 GND.n186 GND.n182 0.1
R307 GND.n190 GND.n186 0.1
R308 GND.n194 GND.n190 0.1
R309 GND.n198 GND.n194 0.1
R310 GND.n202 GND.n198 0.1
R311 GND.n206 GND.n202 0.1
R312 GND.n215 GND.n211 0.1
R313 GND.n219 GND.n215 0.1
R314 GND.n223 GND.n219 0.1
R315 GND.n274 GND.n270 0.1
R316 GND.n270 GND.n266 0.1
R317 GND.n261 GND.n257 0.1
R318 GND.n257 GND.n253 0.1
R319 GND.n253 GND.n249 0.1
R320 GND.n249 GND.n245 0.1
R321 GND.n245 GND.n241 0.1
R322 GND.n241 GND.n237 0.1
R323 GND.n237 GND.n233 0.1
R324 GND.n34 GND.n30 0.075
R325 GND.n50 GND 0.075
R326 GND.n59 GND.n58 0.075
R327 GND.n116 GND.n112 0.075
R328 GND.n132 EESPFAL_NAND_v3_1/GND 0.075
R329 GND.n141 GND.n140 0.075
R330 GND.n211 GND.n207 0.075
R331 EESPFAL_NAND_v3_2/GND GND.n274 0.075
R332 GND.n266 GND.n262 0.075
R333 GND.n30 GND.n29 0.025
R334 GND.n43 GND 0.025
R335 GND.n63 GND.n59 0.025
R336 GND.n112 GND.n111 0.025
R337 GND.n125 EESPFAL_NAND_v3_1/GND 0.025
R338 GND.n145 GND.n141 0.025
R339 GND.n207 GND.n206 0.025
R340 EESPFAL_NAND_v3_2/GND GND.n223 0.025
R341 GND.n262 GND.n261 0.025
R342 CLK2.n103 CLK2.t17 44.338
R343 CLK2.n74 CLK2.t8 44.338
R344 CLK2.n171 CLK2.t21 44.337
R345 CLK2.n27 CLK2.t1 44.337
R346 CLK2.n47 CLK2.t15 39.4
R347 CLK2.n47 CLK2.t6 39.4
R348 CLK2.n0 CLK2.t3 39.4
R349 CLK2.n0 CLK2.t19 39.4
R350 CLK2.n2 CLK2.t9 30.775
R351 CLK2.n99 CLK2.t16 24.568
R352 CLK2.n75 CLK2.t7 24.568
R353 CLK2.n28 CLK2.t0 24.568
R354 CLK2.n172 CLK2.t20 24.568
R355 CLK2.n133 CLK2.t11 24
R356 CLK2.n48 CLK2.t10 24
R357 CLK2.n48 CLK2.t4 24
R358 CLK2.n137 CLK2.t12 24
R359 CLK2.n137 CLK2.t13 24
R360 CLK2.n89 CLK2.n86 12.8
R361 CLK2.n126 CLK2.n125 8.855
R362 CLK2.n122 CLK2.n121 8.855
R363 CLK2.n121 CLK2.n120 8.855
R364 CLK2.n118 CLK2.n117 8.855
R365 CLK2.n117 CLK2.n116 8.855
R366 CLK2.n114 CLK2.n113 8.855
R367 CLK2.n113 CLK2.n112 8.855
R368 CLK2.n110 CLK2.n109 8.855
R369 CLK2.n109 CLK2.n108 8.855
R370 CLK2.n106 CLK2.n105 8.855
R371 CLK2.n105 CLK2.n104 8.855
R372 CLK2.n101 CLK2.n100 8.855
R373 CLK2.n100 CLK2.n99 8.855
R374 CLK2.n97 CLK2.n96 8.855
R375 CLK2.n96 CLK2.n95 8.855
R376 CLK2.n93 CLK2.n92 8.855
R377 CLK2.n92 CLK2.n91 8.855
R378 CLK2.n89 CLK2.n88 8.855
R379 CLK2.n88 CLK2.n87 8.855
R380 CLK2.n86 CLK2.n85 8.855
R381 CLK2.n85 CLK2.n84 8.855
R382 CLK2.n81 CLK2.n80 8.855
R383 CLK2.n80 CLK2.n79 8.855
R384 CLK2.n77 CLK2.n76 8.855
R385 CLK2.n76 CLK2.n75 8.855
R386 CLK2.n72 CLK2.n71 8.855
R387 CLK2.n71 CLK2.n70 8.855
R388 CLK2.n68 CLK2.n67 8.855
R389 CLK2.n67 CLK2.n66 8.855
R390 CLK2.n64 CLK2.n63 8.855
R391 CLK2.n63 CLK2.n62 8.855
R392 CLK2.n60 CLK2.n59 8.855
R393 CLK2.n59 CLK2.n58 8.855
R394 CLK2.n55 CLK2.n54 8.855
R395 CLK2.n54 CLK2.n53 8.855
R396 CLK2.n51 CLK2.n50 8.855
R397 CLK2.n5 CLK2.n4 8.855
R398 CLK2.n9 CLK2.n8 8.855
R399 CLK2.n8 CLK2.n7 8.855
R400 CLK2.n13 CLK2.n12 8.855
R401 CLK2.n12 CLK2.n11 8.855
R402 CLK2.n17 CLK2.n16 8.855
R403 CLK2.n16 CLK2.n15 8.855
R404 CLK2.n21 CLK2.n20 8.855
R405 CLK2.n20 CLK2.n19 8.855
R406 CLK2.n25 CLK2.n24 8.855
R407 CLK2.n24 CLK2.n23 8.855
R408 CLK2.n30 CLK2.n29 8.855
R409 CLK2.n29 CLK2.n28 8.855
R410 CLK2.n34 CLK2.n33 8.855
R411 CLK2.n33 CLK2.n32 8.855
R412 CLK2.n38 CLK2.n37 8.855
R413 CLK2.n37 CLK2.n36 8.855
R414 CLK2.n42 CLK2.n41 8.855
R415 CLK2.n41 CLK2.n40 8.855
R416 CLK2.n182 CLK2.n181 8.855
R417 CLK2.n181 CLK2.n180 8.855
R418 CLK2.n178 CLK2.n177 8.855
R419 CLK2.n177 CLK2.n176 8.855
R420 CLK2.n174 CLK2.n173 8.855
R421 CLK2.n173 CLK2.n172 8.855
R422 CLK2.n169 CLK2.n168 8.855
R423 CLK2.n168 CLK2.n167 8.855
R424 CLK2.n165 CLK2.n164 8.855
R425 CLK2.n164 CLK2.n163 8.855
R426 CLK2.n161 CLK2.n160 8.855
R427 CLK2.n160 CLK2.n159 8.855
R428 CLK2.n157 CLK2.n156 8.855
R429 CLK2.n156 CLK2.n155 8.855
R430 CLK2.n151 CLK2.n149 8.855
R431 CLK2.n149 CLK2.n148 8.855
R432 CLK2.n145 CLK2.n144 8.855
R433 CLK2.n135 CLK2.n134 8.365
R434 CLK2.n91 CLK2.t14 8.189
R435 CLK2.n84 CLK2.t5 8.189
R436 CLK2.n36 CLK2.t2 8.189
R437 CLK2.n180 CLK2.t18 8.189
R438 CLK2.n136 CLK2.n135 7.422
R439 CLK2.n57 CLK2.n48 6.776
R440 CLK2.n90 CLK2.n47 4.938
R441 CLK2.n43 CLK2.n0 4.938
R442 CLK2.n128 CLK2.n46 4.675
R443 CLK2.n2 CLK2.n1 4.675
R444 CLK2.n127 CLK2.n126 4.65
R445 CLK2.n123 CLK2.n122 4.65
R446 CLK2.n119 CLK2.n118 4.65
R447 CLK2.n115 CLK2.n114 4.65
R448 CLK2.n111 CLK2.n110 4.65
R449 CLK2.n107 CLK2.n106 4.65
R450 CLK2.n102 CLK2.n101 4.65
R451 CLK2.n98 CLK2.n97 4.65
R452 CLK2.n94 CLK2.n93 4.65
R453 CLK2.n90 CLK2.n89 4.65
R454 CLK2.n86 CLK2.n83 4.65
R455 CLK2.n82 CLK2.n81 4.65
R456 CLK2.n78 CLK2.n77 4.65
R457 CLK2.n73 CLK2.n72 4.65
R458 CLK2.n69 CLK2.n68 4.65
R459 CLK2.n65 CLK2.n64 4.65
R460 CLK2.n61 CLK2.n60 4.65
R461 CLK2.n56 CLK2.n55 4.65
R462 CLK2.n132 CLK2.n131 4.65
R463 CLK2.n130 CLK2.n129 4.65
R464 CLK2.n141 CLK2.n45 4.65
R465 CLK2.n140 CLK2.n139 4.65
R466 CLK2.n6 CLK2.n5 4.65
R467 CLK2.n10 CLK2.n9 4.65
R468 CLK2.n14 CLK2.n13 4.65
R469 CLK2.n18 CLK2.n17 4.65
R470 CLK2.n22 CLK2.n21 4.65
R471 CLK2.n26 CLK2.n25 4.65
R472 CLK2.n31 CLK2.n30 4.65
R473 CLK2.n35 CLK2.n34 4.65
R474 CLK2.n39 CLK2.n38 4.65
R475 CLK2.n43 CLK2.n42 4.65
R476 CLK2.n183 CLK2.n182 4.65
R477 CLK2.n179 CLK2.n178 4.65
R478 CLK2.n175 CLK2.n174 4.65
R479 CLK2.n170 CLK2.n169 4.65
R480 CLK2.n166 CLK2.n165 4.65
R481 CLK2.n162 CLK2.n161 4.65
R482 CLK2.n158 CLK2.n157 4.65
R483 CLK2.n139 CLK2.n138 3.715
R484 CLK2.n152 CLK2.n151 3.033
R485 CLK2.n151 CLK2.n150 2.72
R486 CLK2.n52 CLK2.n51 2.682
R487 CLK2.n146 CLK2.n145 2.682
R488 CLK2.n134 CLK2.n133 2.57
R489 CLK2.n138 CLK2.n137 2.57
R490 CLK2.n153 CLK2.n142 2.251
R491 CLK2.n154 CLK2.n44 2.246
R492 CLK2.n130 CLK2.n128 2.203
R493 CLK2.n153 CLK2.n141 2.203
R494 CLK2.n4 CLK2.n3 1.655
R495 CLK2.n125 CLK2.n124 1.655
R496 CLK2.n50 CLK2.n49 1.655
R497 CLK2.n144 CLK2.n143 1.655
R498 CLK2.n56 CLK2.n52 1.095
R499 CLK2.n147 CLK2.n146 1.073
R500 CLK2.n142 CLK2 0.279
R501 CLK2.n132 CLK2.n130 0.125
R502 CLK2.n141 CLK2.n140 0.125
R503 CLK2.n140 CLK2.n136 0.125
R504 CLK2.n127 CLK2.n123 0.1
R505 CLK2.n123 CLK2.n119 0.1
R506 CLK2.n119 CLK2.n115 0.1
R507 CLK2.n115 CLK2.n111 0.1
R508 CLK2.n111 CLK2.n107 0.1
R509 CLK2.n102 CLK2.n98 0.1
R510 CLK2.n98 CLK2.n94 0.1
R511 CLK2.n94 CLK2.n90 0.1
R512 CLK2.n83 CLK2.n82 0.1
R513 CLK2.n82 CLK2.n78 0.1
R514 CLK2.n73 CLK2.n69 0.1
R515 CLK2.n69 CLK2.n65 0.1
R516 CLK2.n65 CLK2.n61 0.1
R517 CLK2.n10 CLK2.n6 0.1
R518 CLK2.n14 CLK2.n10 0.1
R519 CLK2.n18 CLK2.n14 0.1
R520 CLK2.n22 CLK2.n18 0.1
R521 CLK2.n26 CLK2.n22 0.1
R522 CLK2.n35 CLK2.n31 0.1
R523 CLK2.n39 CLK2.n35 0.1
R524 CLK2.n43 CLK2.n39 0.1
R525 CLK2.n183 CLK2.n179 0.1
R526 CLK2.n179 CLK2.n175 0.1
R527 CLK2.n170 CLK2.n166 0.1
R528 CLK2.n166 CLK2.n162 0.1
R529 CLK2.n162 CLK2.n158 0.1
R530 CLK2.n61 CLK2.n57 0.087
R531 CLK2.n158 CLK2.n154 0.077
R532 CLK2.n128 CLK2.n127 0.075
R533 CLK2.n103 CLK2.n102 0.075
R534 CLK2.n83 EESPFAL_NAND_v3_1/CLK 0.075
R535 CLK2.n78 CLK2.n74 0.075
R536 CLK2.n6 CLK2.n2 0.075
R537 CLK2.n31 CLK2.n27 0.075
R538 CLK2 CLK2.n183 0.075
R539 CLK2.n175 CLK2.n171 0.075
R540 CLK2.n135 CLK2.n132 0.062
R541 CLK2.n107 CLK2.n103 0.025
R542 CLK2.n90 EESPFAL_NAND_v3_1/CLK 0.025
R543 CLK2.n74 CLK2.n73 0.025
R544 CLK2.n27 CLK2.n26 0.025
R545 CLK2 CLK2.n43 0.025
R546 CLK2.n171 CLK2.n170 0.025
R547 CLK2.n152 CLK2.n147 0.021
R548 CLK2.n57 CLK2.n56 0.012
R549 CLK2.n153 CLK2.n152 0.012
R550 CLK2.n154 CLK2.n153 0.01
R551 CLK1.n27 CLK1.t2 44.338
R552 CLK1.n268 CLK1.t13 44.338
R553 CLK1.n200 CLK1.t31 44.337
R554 CLK1.n173 CLK1.t8 44.337
R555 CLK1.n106 CLK1.t21 44.337
R556 CLK1.n79 CLK1.t15 44.337
R557 CLK1.n48 CLK1.t33 39.4
R558 CLK1.n48 CLK1.t28 39.4
R559 CLK1.n52 CLK1.t17 39.4
R560 CLK1.n52 CLK1.t19 39.4
R561 CLK1.n0 CLK1.t4 39.4
R562 CLK1.n0 CLK1.t11 39.4
R563 CLK1.n2 CLK1.t25 30.776
R564 CLK1.n131 CLK1.t9 30.775
R565 CLK1.n174 CLK1.t7 24.568
R566 CLK1.n196 CLK1.t30 24.568
R567 CLK1.n80 CLK1.t14 24.568
R568 CLK1.n102 CLK1.t20 24.568
R569 CLK1.n28 CLK1.t1 24.568
R570 CLK1.n269 CLK1.t12 24.568
R571 CLK1.n45 CLK1.t23 24
R572 CLK1.n45 CLK1.t5 24
R573 CLK1.n49 CLK1.t26 24
R574 CLK1.n49 CLK1.t24 24
R575 CLK1.n53 CLK1.t29 24
R576 CLK1.n53 CLK1.t0 24
R577 CLK1.n44 CLK1.t6 24
R578 CLK1.n44 CLK1.t22 24
R579 CLK1.n190 CLK1.n187 12.8
R580 CLK1.n96 CLK1.n93 12.8
R581 CLK1.n56 CLK1.n55 8.855
R582 CLK1.n60 CLK1.n59 8.855
R583 CLK1.n59 CLK1.n58 8.855
R584 CLK1.n65 CLK1.n64 8.855
R585 CLK1.n64 CLK1.n63 8.855
R586 CLK1.n69 CLK1.n68 8.855
R587 CLK1.n68 CLK1.n67 8.855
R588 CLK1.n73 CLK1.n72 8.855
R589 CLK1.n72 CLK1.n71 8.855
R590 CLK1.n77 CLK1.n76 8.855
R591 CLK1.n76 CLK1.n75 8.855
R592 CLK1.n82 CLK1.n81 8.855
R593 CLK1.n81 CLK1.n80 8.855
R594 CLK1.n86 CLK1.n85 8.855
R595 CLK1.n85 CLK1.n84 8.855
R596 CLK1.n90 CLK1.n89 8.855
R597 CLK1.n89 CLK1.n88 8.855
R598 CLK1.n93 CLK1.n51 8.855
R599 CLK1.n51 CLK1.n50 8.855
R600 CLK1.n96 CLK1.n95 8.855
R601 CLK1.n95 CLK1.n94 8.855
R602 CLK1.n100 CLK1.n99 8.855
R603 CLK1.n99 CLK1.n98 8.855
R604 CLK1.n104 CLK1.n103 8.855
R605 CLK1.n103 CLK1.n102 8.855
R606 CLK1.n109 CLK1.n108 8.855
R607 CLK1.n108 CLK1.n107 8.855
R608 CLK1.n113 CLK1.n112 8.855
R609 CLK1.n112 CLK1.n111 8.855
R610 CLK1.n117 CLK1.n116 8.855
R611 CLK1.n116 CLK1.n115 8.855
R612 CLK1.n121 CLK1.n120 8.855
R613 CLK1.n120 CLK1.n119 8.855
R614 CLK1.n125 CLK1.n124 8.855
R615 CLK1.n124 CLK1.n123 8.855
R616 CLK1.n129 CLK1.n128 8.855
R617 CLK1.n138 CLK1.n137 8.855
R618 CLK1.n142 CLK1.n141 8.855
R619 CLK1.n141 CLK1.n140 8.855
R620 CLK1.n146 CLK1.n145 8.855
R621 CLK1.n145 CLK1.n144 8.855
R622 CLK1.n151 CLK1.n150 8.855
R623 CLK1.n150 CLK1.n149 8.855
R624 CLK1.n155 CLK1.n154 8.855
R625 CLK1.n154 CLK1.n153 8.855
R626 CLK1.n159 CLK1.n158 8.855
R627 CLK1.n158 CLK1.n157 8.855
R628 CLK1.n163 CLK1.n162 8.855
R629 CLK1.n162 CLK1.n161 8.855
R630 CLK1.n167 CLK1.n166 8.855
R631 CLK1.n166 CLK1.n165 8.855
R632 CLK1.n171 CLK1.n170 8.855
R633 CLK1.n170 CLK1.n169 8.855
R634 CLK1.n176 CLK1.n175 8.855
R635 CLK1.n175 CLK1.n174 8.855
R636 CLK1.n180 CLK1.n179 8.855
R637 CLK1.n179 CLK1.n178 8.855
R638 CLK1.n184 CLK1.n183 8.855
R639 CLK1.n183 CLK1.n182 8.855
R640 CLK1.n187 CLK1.n47 8.855
R641 CLK1.n47 CLK1.n46 8.855
R642 CLK1.n190 CLK1.n189 8.855
R643 CLK1.n189 CLK1.n188 8.855
R644 CLK1.n194 CLK1.n193 8.855
R645 CLK1.n193 CLK1.n192 8.855
R646 CLK1.n198 CLK1.n197 8.855
R647 CLK1.n197 CLK1.n196 8.855
R648 CLK1.n203 CLK1.n202 8.855
R649 CLK1.n202 CLK1.n201 8.855
R650 CLK1.n207 CLK1.n206 8.855
R651 CLK1.n206 CLK1.n205 8.855
R652 CLK1.n211 CLK1.n210 8.855
R653 CLK1.n210 CLK1.n209 8.855
R654 CLK1.n215 CLK1.n214 8.855
R655 CLK1.n214 CLK1.n213 8.855
R656 CLK1.n219 CLK1.n218 8.855
R657 CLK1.n218 CLK1.n217 8.855
R658 CLK1.n223 CLK1.n222 8.855
R659 CLK1.n222 CLK1.n221 8.855
R660 CLK1.n228 CLK1.n227 8.855
R661 CLK1.n227 CLK1.n226 8.855
R662 CLK1.n232 CLK1.n231 8.855
R663 CLK1.n231 CLK1.n230 8.855
R664 CLK1.n236 CLK1.n235 8.855
R665 CLK1.n5 CLK1.n4 8.855
R666 CLK1.n9 CLK1.n8 8.855
R667 CLK1.n8 CLK1.n7 8.855
R668 CLK1.n13 CLK1.n12 8.855
R669 CLK1.n12 CLK1.n11 8.855
R670 CLK1.n17 CLK1.n16 8.855
R671 CLK1.n16 CLK1.n15 8.855
R672 CLK1.n21 CLK1.n20 8.855
R673 CLK1.n20 CLK1.n19 8.855
R674 CLK1.n25 CLK1.n24 8.855
R675 CLK1.n24 CLK1.n23 8.855
R676 CLK1.n30 CLK1.n29 8.855
R677 CLK1.n29 CLK1.n28 8.855
R678 CLK1.n34 CLK1.n33 8.855
R679 CLK1.n33 CLK1.n32 8.855
R680 CLK1.n38 CLK1.n37 8.855
R681 CLK1.n37 CLK1.n36 8.855
R682 CLK1.n42 CLK1.n41 8.855
R683 CLK1.n41 CLK1.n40 8.855
R684 CLK1.n279 CLK1.n278 8.855
R685 CLK1.n278 CLK1.n277 8.855
R686 CLK1.n275 CLK1.n274 8.855
R687 CLK1.n274 CLK1.n273 8.855
R688 CLK1.n271 CLK1.n270 8.855
R689 CLK1.n270 CLK1.n269 8.855
R690 CLK1.n266 CLK1.n265 8.855
R691 CLK1.n265 CLK1.n264 8.855
R692 CLK1.n262 CLK1.n261 8.855
R693 CLK1.n261 CLK1.n260 8.855
R694 CLK1.n258 CLK1.n257 8.855
R695 CLK1.n257 CLK1.n256 8.855
R696 CLK1.n254 CLK1.n253 8.855
R697 CLK1.n253 CLK1.n252 8.855
R698 CLK1.n249 CLK1.n248 8.855
R699 CLK1.n248 CLK1.n247 8.855
R700 CLK1.n245 CLK1.n244 8.855
R701 CLK1.n182 CLK1.t32 8.189
R702 CLK1.n188 CLK1.t27 8.189